simulator lang=spectre
vPC_0 (WL\<0\> VSS) vsource type=pwl wave=[  \
0.000000000000 0.000000000000 \
0.000001000000 0.000000000000 \
0.000002000000 0.000000000000  \
0.000002000100 1.200000000000  \
0.000003000000 1.200000000000  \
0.000003000100 0.000000000000] 

vPC_1 (WL\<1\> VSS) vsource type=pwl wave=[  \
0.000000000000 0.000000000000 \
0.000001000000 0.000000000000 \
0.000003000000 0.000000000000  \
0.000003000100 1.200000000000  \
0.000004000000 1.200000000000  \
0.000004000100 0.000000000000] 

vPC_2 (WL\<2\> VSS) vsource type=pwl wave=[  \
0.000000000000 0.000000000000 \
0.000001000000 0.000000000000 \
0.000004000000 0.000000000000  \
0.000004000100 1.200000000000  \
0.000005000000 1.200000000000  \
0.000005000100 0.000000000000] 

vPC_3 (WL\<3\> VSS) vsource type=pwl wave=[  \
0.000000000000 0.000000000000 \
0.000001000000 0.000000000000 \
0.000005000000 0.000000000000  \
0.000005000100 1.200000000000  \
0.000006000000 1.200000000000  \
0.000006000100 0.000000000000] 

vPC_4 (WL\<4\> VSS) vsource type=pwl wave=[  \
0.000000000000 0.000000000000 \
0.000001000000 0.000000000000 \
0.000006000000 0.000000000000  \
0.000006000100 1.200000000000  \
0.000007000000 1.200000000000  \
0.000007000100 0.000000000000] 

vPC_5 (WL\<5\> VSS) vsource type=pwl wave=[  \
0.000000000000 0.000000000000 \
0.000001000000 0.000000000000 \
0.000007000000 0.000000000000  \
0.000007000100 1.200000000000  \
0.000008000000 1.200000000000  \
0.000008000100 0.000000000000] 

vPC_6 (WL\<6\> VSS) vsource type=pwl wave=[  \
0.000000000000 0.000000000000 \
0.000001000000 0.000000000000 \
0.000008000000 0.000000000000  \
0.000008000100 1.200000000000  \
0.000009000000 1.200000000000  \
0.000009000100 0.000000000000] 

vPC_7 (WL\<7\> VSS) vsource type=pwl wave=[  \
0.000000000000 0.000000000000 \
0.000001000000 0.000000000000 \
0.000009000000 0.000000000000  \
0.000009000100 1.200000000000  \
0.000010000000 1.200000000000  \
0.000010000100 0.000000000000] 

vPC_8 (WL\<8\> VSS) vsource type=pwl wave=[  \
0.000000000000 0.000000000000 \
0.000001000000 0.000000000000 \
0.000010000000 0.000000000000  \
0.000010000100 1.200000000000  \
0.000011000000 1.200000000000  \
0.000011000100 0.000000000000] 

vPC_9 (WL\<9\> VSS) vsource type=pwl wave=[  \
0.000000000000 0.000000000000 \
0.000001000000 0.000000000000 \
0.000011000000 0.000000000000  \
0.000011000100 1.200000000000  \
0.000012000000 1.200000000000  \
0.000012000100 0.000000000000] 

vPC_10 (WL\<10\> VSS) vsource type=pwl wave=[  \
0.000000000000 0.000000000000 \
0.000001000000 0.000000000000 \
0.000012000000 0.000000000000  \
0.000012000100 1.200000000000  \
0.000013000000 1.200000000000  \
0.000013000100 0.000000000000] 

vPC_11 (WL\<11\> VSS) vsource type=pwl wave=[  \
0.000000000000 0.000000000000 \
0.000001000000 0.000000000000 \
0.000013000000 0.000000000000  \
0.000013000100 1.200000000000  \
0.000014000000 1.200000000000  \
0.000014000100 0.000000000000] 

vPC_12 (WL\<12\> VSS) vsource type=pwl wave=[  \
0.000000000000 0.000000000000 \
0.000001000000 0.000000000000 \
0.000014000000 0.000000000000  \
0.000014000100 1.200000000000  \
0.000015000000 1.200000000000  \
0.000015000100 0.000000000000] 

vPC_13 (WL\<13\> VSS) vsource type=pwl wave=[  \
0.000000000000 0.000000000000 \
0.000001000000 0.000000000000 \
0.000015000000 0.000000000000  \
0.000015000100 1.200000000000  \
0.000016000000 1.200000000000  \
0.000016000100 0.000000000000] 

vPC_14 (WL\<14\> VSS) vsource type=pwl wave=[  \
0.000000000000 0.000000000000 \
0.000001000000 0.000000000000 \
0.000016000000 0.000000000000  \
0.000016000100 1.200000000000  \
0.000017000000 1.200000000000  \
0.000017000100 0.000000000000] 

vPC_15 (WL\<15\> VSS) vsource type=pwl wave=[  \
0.000000000000 0.000000000000 \
0.000001000000 0.000000000000 \
0.000017000000 0.000000000000  \
0.000017000100 1.200000000000  \
0.000018000000 1.200000000000  \
0.000018000100 0.000000000000] 

