simulator lang=spectre
vbl_0 (BL\<0\> VSS) vsource type=pwl wave=[  \
0.000000000000 0.000000000000 \
0.000001000000 0.000000000000 \
0.000002000000 0.000000000000  \
0.000002000100 0.000000000000  \
0.000003000000 0.000000000000  \
0.000003000100 0.000000000000  \
0.000004000000 0.000000000000  \
0.000004000100 0.000000000000  \
0.000005000000 0.000000000000  \
0.000005000100 0.000000000000  \
0.000006000000 0.000000000000  \
0.000006000100 0.000000000000  \
0.000007000000 0.000000000000  \
0.000007000100 0.000000000000  \
0.000008000000 0.000000000000  \
0.000008000100 0.000000000000  \
0.000009000000 0.000000000000  \
0.000009000100 0.000000000000  \
0.000010000000 0.000000000000  \
0.000010000100 0.000000000000  \
0.000011000000 0.000000000000  \
0.000011000100 0.000000000000  \
0.000012000000 0.000000000000  \
0.000012000100 0.000000000000  \
0.000013000000 0.000000000000  \
0.000013000100 0.000000000000  \
0.000014000000 0.000000000000  \
0.000014000100 0.000000000000  \
0.000015000000 0.000000000000  \
0.000015000100 0.000000000000  \
0.000016000000 0.000000000000  \
0.000016000100 0.000000000000  \
0.000017000000 0.000000000000  \
0.000017000100 0.000000000000] 

vbl_1 (BL\<1\> VSS) vsource type=pwl wave=[  \
0.000000000000 0.000000000000 \
0.000001000000 0.000000000000 \
0.000002000000 0.000000000000  \
0.000002000100 0.000000000000  \
0.000003000000 0.000000000000  \
0.000003000100 0.000000000000  \
0.000004000000 0.000000000000  \
0.000004000100 0.000000000000  \
0.000005000000 0.000000000000  \
0.000005000100 0.000000000000  \
0.000006000000 0.000000000000  \
0.000006000100 0.000000000000  \
0.000007000000 0.000000000000  \
0.000007000100 0.000000000000  \
0.000008000000 0.000000000000  \
0.000008000100 0.000000000000  \
0.000009000000 0.000000000000  \
0.000009000100 0.000000000000  \
0.000010000000 0.000000000000  \
0.000010000100 0.000000000000  \
0.000011000000 0.000000000000  \
0.000011000100 0.000000000000  \
0.000012000000 0.000000000000  \
0.000012000100 0.000000000000  \
0.000013000000 0.000000000000  \
0.000013000100 0.000000000000  \
0.000014000000 0.000000000000  \
0.000014000100 0.000000000000  \
0.000015000000 0.000000000000  \
0.000015000100 0.000000000000  \
0.000016000000 0.000000000000  \
0.000016000100 0.000000000000  \
0.000017000000 0.000000000000  \
0.000017000100 0.000000000000] 

vbl_2 (BL\<2\> VSS) vsource type=pwl wave=[  \
0.000000000000 0.000000000000 \
0.000001000000 0.000000000000 \
0.000002000000 0.000000000000  \
0.000002000100 0.000000000000  \
0.000003000000 0.000000000000  \
0.000003000100 0.000000000000  \
0.000004000000 0.000000000000  \
0.000004000100 0.000000000000  \
0.000005000000 0.000000000000  \
0.000005000100 0.000000000000  \
0.000006000000 0.000000000000  \
0.000006000100 0.000000000000  \
0.000007000000 0.000000000000  \
0.000007000100 0.000000000000  \
0.000008000000 0.000000000000  \
0.000008000100 0.000000000000  \
0.000009000000 0.000000000000  \
0.000009000100 0.000000000000  \
0.000010000000 0.000000000000  \
0.000010000100 0.000000000000  \
0.000011000000 0.000000000000  \
0.000011000100 0.000000000000  \
0.000012000000 0.000000000000  \
0.000012000100 0.000000000000  \
0.000013000000 0.000000000000  \
0.000013000100 0.000000000000  \
0.000014000000 0.000000000000  \
0.000014000100 0.000000000000  \
0.000015000000 0.000000000000  \
0.000015000100 0.000000000000  \
0.000016000000 0.000000000000  \
0.000016000100 0.000000000000  \
0.000017000000 0.000000000000  \
0.000017000100 0.000000000000] 

vbl_3 (BL\<3\> VSS) vsource type=pwl wave=[  \
0.000000000000 0.000000000000 \
0.000001000000 0.000000000000 \
0.000002000000 0.000000000000  \
0.000002000100 0.000000000000  \
0.000003000000 0.000000000000  \
0.000003000100 0.000000000000  \
0.000004000000 0.000000000000  \
0.000004000100 0.000000000000  \
0.000005000000 0.000000000000  \
0.000005000100 0.000000000000  \
0.000006000000 0.000000000000  \
0.000006000100 0.000000000000  \
0.000007000000 0.000000000000  \
0.000007000100 0.000000000000  \
0.000008000000 0.000000000000  \
0.000008000100 0.000000000000  \
0.000009000000 0.000000000000  \
0.000009000100 0.000000000000  \
0.000010000000 0.000000000000  \
0.000010000100 0.000000000000  \
0.000011000000 0.000000000000  \
0.000011000100 0.000000000000  \
0.000012000000 0.000000000000  \
0.000012000100 0.000000000000  \
0.000013000000 0.000000000000  \
0.000013000100 0.000000000000  \
0.000014000000 0.000000000000  \
0.000014000100 0.000000000000  \
0.000015000000 0.000000000000  \
0.000015000100 0.000000000000  \
0.000016000000 0.000000000000  \
0.000016000100 0.000000000000  \
0.000017000000 0.000000000000  \
0.000017000100 0.000000000000] 

vbl_4 (BL\<4\> VSS) vsource type=pwl wave=[  \
0.000000000000 0.000000000000 \
0.000001000000 0.000000000000 \
0.000002000000 0.000000000000  \
0.000002000100 0.000000000000  \
0.000003000000 0.000000000000  \
0.000003000100 0.000000000000  \
0.000004000000 0.000000000000  \
0.000004000100 0.000000000000  \
0.000005000000 0.000000000000  \
0.000005000100 0.000000000000  \
0.000006000000 0.000000000000  \
0.000006000100 0.000000000000  \
0.000007000000 0.000000000000  \
0.000007000100 0.000000000000  \
0.000008000000 0.000000000000  \
0.000008000100 0.000000000000  \
0.000009000000 0.000000000000  \
0.000009000100 0.000000000000  \
0.000010000000 0.000000000000  \
0.000010000100 0.000000000000  \
0.000011000000 0.000000000000  \
0.000011000100 0.000000000000  \
0.000012000000 0.000000000000  \
0.000012000100 0.000000000000  \
0.000013000000 0.000000000000  \
0.000013000100 0.000000000000  \
0.000014000000 0.000000000000  \
0.000014000100 0.000000000000  \
0.000015000000 0.000000000000  \
0.000015000100 0.000000000000  \
0.000016000000 0.000000000000  \
0.000016000100 0.000000000000  \
0.000017000000 0.000000000000  \
0.000017000100 0.000000000000] 

vbl_5 (BL\<5\> VSS) vsource type=pwl wave=[  \
0.000000000000 0.000000000000 \
0.000001000000 0.000000000000 \
0.000002000000 0.000000000000  \
0.000002000100 0.000000000000  \
0.000003000000 0.000000000000  \
0.000003000100 0.000000000000  \
0.000004000000 0.000000000000  \
0.000004000100 0.000000000000  \
0.000005000000 0.000000000000  \
0.000005000100 0.000000000000  \
0.000006000000 0.000000000000  \
0.000006000100 0.000000000000  \
0.000007000000 0.000000000000  \
0.000007000100 0.000000000000  \
0.000008000000 0.000000000000  \
0.000008000100 0.000000000000  \
0.000009000000 0.000000000000  \
0.000009000100 0.000000000000  \
0.000010000000 0.000000000000  \
0.000010000100 0.000000000000  \
0.000011000000 0.000000000000  \
0.000011000100 0.000000000000  \
0.000012000000 0.000000000000  \
0.000012000100 0.000000000000  \
0.000013000000 0.000000000000  \
0.000013000100 0.000000000000  \
0.000014000000 0.000000000000  \
0.000014000100 0.000000000000  \
0.000015000000 0.000000000000  \
0.000015000100 0.000000000000  \
0.000016000000 0.000000000000  \
0.000016000100 0.000000000000  \
0.000017000000 0.000000000000  \
0.000017000100 0.000000000000] 

vbl_6 (BL\<6\> VSS) vsource type=pwl wave=[  \
0.000000000000 0.000000000000 \
0.000001000000 0.000000000000 \
0.000002000000 0.000000000000  \
0.000002000100 0.000000000000  \
0.000003000000 0.000000000000  \
0.000003000100 0.000000000000  \
0.000004000000 0.000000000000  \
0.000004000100 0.000000000000  \
0.000005000000 0.000000000000  \
0.000005000100 0.000000000000  \
0.000006000000 0.000000000000  \
0.000006000100 0.000000000000  \
0.000007000000 0.000000000000  \
0.000007000100 0.000000000000  \
0.000008000000 0.000000000000  \
0.000008000100 0.000000000000  \
0.000009000000 0.000000000000  \
0.000009000100 0.000000000000  \
0.000010000000 0.000000000000  \
0.000010000100 0.000000000000  \
0.000011000000 0.000000000000  \
0.000011000100 0.000000000000  \
0.000012000000 0.000000000000  \
0.000012000100 0.000000000000  \
0.000013000000 0.000000000000  \
0.000013000100 0.000000000000  \
0.000014000000 0.000000000000  \
0.000014000100 0.000000000000  \
0.000015000000 0.000000000000  \
0.000015000100 0.000000000000  \
0.000016000000 0.000000000000  \
0.000016000100 0.000000000000  \
0.000017000000 0.000000000000  \
0.000017000100 0.000000000000] 

vbl_7 (BL\<7\> VSS) vsource type=pwl wave=[  \
0.000000000000 0.000000000000 \
0.000001000000 0.000000000000 \
0.000002000000 0.000000000000  \
0.000002000100 0.000000000000  \
0.000003000000 0.000000000000  \
0.000003000100 0.000000000000  \
0.000004000000 0.000000000000  \
0.000004000100 0.000000000000  \
0.000005000000 0.000000000000  \
0.000005000100 0.000000000000  \
0.000006000000 0.000000000000  \
0.000006000100 0.000000000000  \
0.000007000000 0.000000000000  \
0.000007000100 0.000000000000  \
0.000008000000 0.000000000000  \
0.000008000100 0.000000000000  \
0.000009000000 0.000000000000  \
0.000009000100 0.000000000000  \
0.000010000000 0.000000000000  \
0.000010000100 0.000000000000  \
0.000011000000 0.000000000000  \
0.000011000100 0.000000000000  \
0.000012000000 0.000000000000  \
0.000012000100 0.000000000000  \
0.000013000000 0.000000000000  \
0.000013000100 0.000000000000  \
0.000014000000 0.000000000000  \
0.000014000100 0.000000000000  \
0.000015000000 0.000000000000  \
0.000015000100 0.000000000000  \
0.000016000000 0.000000000000  \
0.000016000100 0.000000000000  \
0.000017000000 0.000000000000  \
0.000017000100 0.000000000000] 

vbl_8 (BL\<8\> VSS) vsource type=pwl wave=[  \
0.000000000000 0.000000000000 \
0.000001000000 0.000000000000 \
0.000002000000 0.000000000000  \
0.000002000100 0.000000000000  \
0.000003000000 0.000000000000  \
0.000003000100 0.000000000000  \
0.000004000000 0.000000000000  \
0.000004000100 0.000000000000  \
0.000005000000 0.000000000000  \
0.000005000100 0.000000000000  \
0.000006000000 0.000000000000  \
0.000006000100 0.000000000000  \
0.000007000000 0.000000000000  \
0.000007000100 0.000000000000  \
0.000008000000 0.000000000000  \
0.000008000100 0.000000000000  \
0.000009000000 0.000000000000  \
0.000009000100 0.000000000000  \
0.000010000000 0.000000000000  \
0.000010000100 0.000000000000  \
0.000011000000 0.000000000000  \
0.000011000100 0.000000000000  \
0.000012000000 0.000000000000  \
0.000012000100 0.000000000000  \
0.000013000000 0.000000000000  \
0.000013000100 0.000000000000  \
0.000014000000 0.000000000000  \
0.000014000100 0.000000000000  \
0.000015000000 0.000000000000  \
0.000015000100 0.000000000000  \
0.000016000000 0.000000000000  \
0.000016000100 0.000000000000  \
0.000017000000 0.000000000000  \
0.000017000100 0.000000000000] 

vbl_9 (BL\<9\> VSS) vsource type=pwl wave=[  \
0.000000000000 0.000000000000 \
0.000001000000 0.000000000000 \
0.000002000000 0.000000000000  \
0.000002000100 0.000000000000  \
0.000003000000 0.000000000000  \
0.000003000100 0.000000000000  \
0.000004000000 0.000000000000  \
0.000004000100 0.000000000000  \
0.000005000000 0.000000000000  \
0.000005000100 0.000000000000  \
0.000006000000 0.000000000000  \
0.000006000100 0.000000000000  \
0.000007000000 0.000000000000  \
0.000007000100 0.000000000000  \
0.000008000000 0.000000000000  \
0.000008000100 0.000000000000  \
0.000009000000 0.000000000000  \
0.000009000100 0.000000000000  \
0.000010000000 0.000000000000  \
0.000010000100 0.000000000000  \
0.000011000000 0.000000000000  \
0.000011000100 0.000000000000  \
0.000012000000 0.000000000000  \
0.000012000100 0.000000000000  \
0.000013000000 0.000000000000  \
0.000013000100 0.000000000000  \
0.000014000000 0.000000000000  \
0.000014000100 0.000000000000  \
0.000015000000 0.000000000000  \
0.000015000100 0.000000000000  \
0.000016000000 0.000000000000  \
0.000016000100 0.000000000000  \
0.000017000000 0.000000000000  \
0.000017000100 0.000000000000] 

vbl_10 (BL\<10\> VSS) vsource type=pwl wave=[  \
0.000000000000 0.000000000000 \
0.000001000000 0.000000000000 \
0.000002000000 0.000000000000  \
0.000002000100 0.000000000000  \
0.000003000000 0.000000000000  \
0.000003000100 0.000000000000  \
0.000004000000 0.000000000000  \
0.000004000100 0.000000000000  \
0.000005000000 0.000000000000  \
0.000005000100 0.000000000000  \
0.000006000000 0.000000000000  \
0.000006000100 0.000000000000  \
0.000007000000 0.000000000000  \
0.000007000100 0.000000000000  \
0.000008000000 0.000000000000  \
0.000008000100 0.000000000000  \
0.000009000000 0.000000000000  \
0.000009000100 0.000000000000  \
0.000010000000 0.000000000000  \
0.000010000100 0.000000000000  \
0.000011000000 0.000000000000  \
0.000011000100 0.000000000000  \
0.000012000000 0.000000000000  \
0.000012000100 0.000000000000  \
0.000013000000 0.000000000000  \
0.000013000100 0.000000000000  \
0.000014000000 0.000000000000  \
0.000014000100 0.000000000000  \
0.000015000000 0.000000000000  \
0.000015000100 0.000000000000  \
0.000016000000 0.000000000000  \
0.000016000100 0.000000000000  \
0.000017000000 0.000000000000  \
0.000017000100 0.000000000000] 

vbl_11 (BL\<11\> VSS) vsource type=pwl wave=[  \
0.000000000000 0.000000000000 \
0.000001000000 0.000000000000 \
0.000002000000 0.000000000000  \
0.000002000100 0.000000000000  \
0.000003000000 0.000000000000  \
0.000003000100 0.000000000000  \
0.000004000000 0.000000000000  \
0.000004000100 0.000000000000  \
0.000005000000 0.000000000000  \
0.000005000100 0.000000000000  \
0.000006000000 0.000000000000  \
0.000006000100 0.000000000000  \
0.000007000000 0.000000000000  \
0.000007000100 0.000000000000  \
0.000008000000 0.000000000000  \
0.000008000100 0.000000000000  \
0.000009000000 0.000000000000  \
0.000009000100 0.000000000000  \
0.000010000000 0.000000000000  \
0.000010000100 0.000000000000  \
0.000011000000 0.000000000000  \
0.000011000100 0.000000000000  \
0.000012000000 0.000000000000  \
0.000012000100 0.000000000000  \
0.000013000000 0.000000000000  \
0.000013000100 0.000000000000  \
0.000014000000 0.000000000000  \
0.000014000100 0.000000000000  \
0.000015000000 0.000000000000  \
0.000015000100 0.000000000000  \
0.000016000000 0.000000000000  \
0.000016000100 0.000000000000  \
0.000017000000 0.000000000000  \
0.000017000100 0.000000000000] 

vbl_12 (BL\<12\> VSS) vsource type=pwl wave=[  \
0.000000000000 0.000000000000 \
0.000001000000 0.000000000000 \
0.000002000000 0.000000000000  \
0.000002000100 0.000000000000  \
0.000003000000 0.000000000000  \
0.000003000100 0.000000000000  \
0.000004000000 0.000000000000  \
0.000004000100 0.000000000000  \
0.000005000000 0.000000000000  \
0.000005000100 0.000000000000  \
0.000006000000 0.000000000000  \
0.000006000100 0.000000000000  \
0.000007000000 0.000000000000  \
0.000007000100 0.000000000000  \
0.000008000000 0.000000000000  \
0.000008000100 0.000000000000  \
0.000009000000 0.000000000000  \
0.000009000100 0.000000000000  \
0.000010000000 0.000000000000  \
0.000010000100 0.000000000000  \
0.000011000000 0.000000000000  \
0.000011000100 0.000000000000  \
0.000012000000 0.000000000000  \
0.000012000100 0.000000000000  \
0.000013000000 0.000000000000  \
0.000013000100 0.000000000000  \
0.000014000000 0.000000000000  \
0.000014000100 0.000000000000  \
0.000015000000 0.000000000000  \
0.000015000100 0.000000000000  \
0.000016000000 0.000000000000  \
0.000016000100 0.000000000000  \
0.000017000000 0.000000000000  \
0.000017000100 0.000000000000] 

vbl_13 (BL\<13\> VSS) vsource type=pwl wave=[  \
0.000000000000 0.000000000000 \
0.000001000000 0.000000000000 \
0.000002000000 0.000000000000  \
0.000002000100 0.000000000000  \
0.000003000000 0.000000000000  \
0.000003000100 0.000000000000  \
0.000004000000 0.000000000000  \
0.000004000100 0.000000000000  \
0.000005000000 0.000000000000  \
0.000005000100 0.000000000000  \
0.000006000000 0.000000000000  \
0.000006000100 0.000000000000  \
0.000007000000 0.000000000000  \
0.000007000100 0.000000000000  \
0.000008000000 0.000000000000  \
0.000008000100 0.000000000000  \
0.000009000000 0.000000000000  \
0.000009000100 0.000000000000  \
0.000010000000 0.000000000000  \
0.000010000100 0.000000000000  \
0.000011000000 0.000000000000  \
0.000011000100 0.000000000000  \
0.000012000000 0.000000000000  \
0.000012000100 0.000000000000  \
0.000013000000 0.000000000000  \
0.000013000100 0.000000000000  \
0.000014000000 0.000000000000  \
0.000014000100 0.000000000000  \
0.000015000000 0.000000000000  \
0.000015000100 0.000000000000  \
0.000016000000 0.000000000000  \
0.000016000100 0.000000000000  \
0.000017000000 0.000000000000  \
0.000017000100 0.000000000000] 

vbl_14 (BL\<14\> VSS) vsource type=pwl wave=[  \
0.000000000000 0.000000000000 \
0.000001000000 0.000000000000 \
0.000002000000 0.000000000000  \
0.000002000100 0.000000000000  \
0.000003000000 0.000000000000  \
0.000003000100 0.000000000000  \
0.000004000000 0.000000000000  \
0.000004000100 0.000000000000  \
0.000005000000 0.000000000000  \
0.000005000100 0.000000000000  \
0.000006000000 0.000000000000  \
0.000006000100 0.000000000000  \
0.000007000000 0.000000000000  \
0.000007000100 0.000000000000  \
0.000008000000 0.000000000000  \
0.000008000100 0.000000000000  \
0.000009000000 0.000000000000  \
0.000009000100 0.000000000000  \
0.000010000000 0.000000000000  \
0.000010000100 0.000000000000  \
0.000011000000 0.000000000000  \
0.000011000100 0.000000000000  \
0.000012000000 0.000000000000  \
0.000012000100 0.000000000000  \
0.000013000000 0.000000000000  \
0.000013000100 0.000000000000  \
0.000014000000 0.000000000000  \
0.000014000100 0.000000000000  \
0.000015000000 0.000000000000  \
0.000015000100 0.000000000000  \
0.000016000000 0.000000000000  \
0.000016000100 0.000000000000  \
0.000017000000 0.000000000000  \
0.000017000100 0.000000000000] 

vbl_15 (BL\<15\> VSS) vsource type=pwl wave=[  \
0.000000000000 0.000000000000 \
0.000001000000 0.000000000000 \
0.000002000000 0.000000000000  \
0.000002000100 0.000000000000  \
0.000003000000 0.000000000000  \
0.000003000100 0.000000000000  \
0.000004000000 0.000000000000  \
0.000004000100 0.000000000000  \
0.000005000000 0.000000000000  \
0.000005000100 0.000000000000  \
0.000006000000 0.000000000000  \
0.000006000100 0.000000000000  \
0.000007000000 0.000000000000  \
0.000007000100 0.000000000000  \
0.000008000000 0.000000000000  \
0.000008000100 0.000000000000  \
0.000009000000 0.000000000000  \
0.000009000100 0.000000000000  \
0.000010000000 0.000000000000  \
0.000010000100 0.000000000000  \
0.000011000000 0.000000000000  \
0.000011000100 0.000000000000  \
0.000012000000 0.000000000000  \
0.000012000100 0.000000000000  \
0.000013000000 0.000000000000  \
0.000013000100 0.000000000000  \
0.000014000000 0.000000000000  \
0.000014000100 0.000000000000  \
0.000015000000 0.000000000000  \
0.000015000100 0.000000000000  \
0.000016000000 0.000000000000  \
0.000016000100 0.000000000000  \
0.000017000000 0.000000000000  \
0.000017000100 0.000000000000] 

vbl_16 (BL\<16\> VSS) vsource type=pwl wave=[  \
0.000000000000 0.000000000000 \
0.000001000000 0.000000000000 \
0.000002000000 0.000000000000  \
0.000002000100 0.000000000000  \
0.000003000000 0.000000000000  \
0.000003000100 0.000000000000  \
0.000004000000 0.000000000000  \
0.000004000100 0.000000000000  \
0.000005000000 0.000000000000  \
0.000005000100 0.000000000000  \
0.000006000000 0.000000000000  \
0.000006000100 0.000000000000  \
0.000007000000 0.000000000000  \
0.000007000100 0.000000000000  \
0.000008000000 0.000000000000  \
0.000008000100 0.000000000000  \
0.000009000000 0.000000000000  \
0.000009000100 0.000000000000  \
0.000010000000 0.000000000000  \
0.000010000100 0.000000000000  \
0.000011000000 0.000000000000  \
0.000011000100 0.000000000000  \
0.000012000000 0.000000000000  \
0.000012000100 0.000000000000  \
0.000013000000 0.000000000000  \
0.000013000100 0.000000000000  \
0.000014000000 0.000000000000  \
0.000014000100 0.000000000000  \
0.000015000000 0.000000000000  \
0.000015000100 0.000000000000  \
0.000016000000 0.000000000000  \
0.000016000100 0.000000000000  \
0.000017000000 0.000000000000  \
0.000017000100 0.000000000000] 

vbl_17 (BL\<17\> VSS) vsource type=pwl wave=[  \
0.000000000000 0.000000000000 \
0.000001000000 0.000000000000 \
0.000002000000 0.000000000000  \
0.000002000100 0.000000000000  \
0.000003000000 0.000000000000  \
0.000003000100 0.000000000000  \
0.000004000000 0.000000000000  \
0.000004000100 0.000000000000  \
0.000005000000 0.000000000000  \
0.000005000100 0.000000000000  \
0.000006000000 0.000000000000  \
0.000006000100 0.000000000000  \
0.000007000000 0.000000000000  \
0.000007000100 0.000000000000  \
0.000008000000 0.000000000000  \
0.000008000100 0.000000000000  \
0.000009000000 0.000000000000  \
0.000009000100 0.000000000000  \
0.000010000000 0.000000000000  \
0.000010000100 0.000000000000  \
0.000011000000 0.000000000000  \
0.000011000100 0.000000000000  \
0.000012000000 0.000000000000  \
0.000012000100 0.000000000000  \
0.000013000000 0.000000000000  \
0.000013000100 0.000000000000  \
0.000014000000 0.000000000000  \
0.000014000100 0.000000000000  \
0.000015000000 0.000000000000  \
0.000015000100 0.000000000000  \
0.000016000000 0.000000000000  \
0.000016000100 0.000000000000  \
0.000017000000 0.000000000000  \
0.000017000100 0.000000000000] 

vbl_18 (BL\<18\> VSS) vsource type=pwl wave=[  \
0.000000000000 0.000000000000 \
0.000001000000 0.000000000000 \
0.000002000000 0.000000000000  \
0.000002000100 0.000000000000  \
0.000003000000 0.000000000000  \
0.000003000100 0.000000000000  \
0.000004000000 0.000000000000  \
0.000004000100 0.000000000000  \
0.000005000000 0.000000000000  \
0.000005000100 0.000000000000  \
0.000006000000 0.000000000000  \
0.000006000100 0.000000000000  \
0.000007000000 0.000000000000  \
0.000007000100 0.000000000000  \
0.000008000000 0.000000000000  \
0.000008000100 0.000000000000  \
0.000009000000 0.000000000000  \
0.000009000100 0.000000000000  \
0.000010000000 0.000000000000  \
0.000010000100 0.000000000000  \
0.000011000000 0.000000000000  \
0.000011000100 0.000000000000  \
0.000012000000 0.000000000000  \
0.000012000100 0.000000000000  \
0.000013000000 0.000000000000  \
0.000013000100 0.000000000000  \
0.000014000000 0.000000000000  \
0.000014000100 0.000000000000  \
0.000015000000 0.000000000000  \
0.000015000100 0.000000000000  \
0.000016000000 0.000000000000  \
0.000016000100 0.000000000000  \
0.000017000000 0.000000000000  \
0.000017000100 0.000000000000] 

vbl_19 (BL\<19\> VSS) vsource type=pwl wave=[  \
0.000000000000 0.000000000000 \
0.000001000000 0.000000000000 \
0.000002000000 0.000000000000  \
0.000002000100 0.000000000000  \
0.000003000000 0.000000000000  \
0.000003000100 0.000000000000  \
0.000004000000 0.000000000000  \
0.000004000100 0.000000000000  \
0.000005000000 0.000000000000  \
0.000005000100 0.000000000000  \
0.000006000000 0.000000000000  \
0.000006000100 0.000000000000  \
0.000007000000 0.000000000000  \
0.000007000100 0.000000000000  \
0.000008000000 0.000000000000  \
0.000008000100 0.000000000000  \
0.000009000000 0.000000000000  \
0.000009000100 0.000000000000  \
0.000010000000 0.000000000000  \
0.000010000100 0.000000000000  \
0.000011000000 0.000000000000  \
0.000011000100 0.000000000000  \
0.000012000000 0.000000000000  \
0.000012000100 0.000000000000  \
0.000013000000 0.000000000000  \
0.000013000100 0.000000000000  \
0.000014000000 0.000000000000  \
0.000014000100 0.000000000000  \
0.000015000000 0.000000000000  \
0.000015000100 0.000000000000  \
0.000016000000 0.000000000000  \
0.000016000100 0.000000000000  \
0.000017000000 0.000000000000  \
0.000017000100 0.000000000000] 

vbl_20 (BL\<20\> VSS) vsource type=pwl wave=[  \
0.000000000000 0.000000000000 \
0.000001000000 0.000000000000 \
0.000002000000 0.000000000000  \
0.000002000100 0.000000000000  \
0.000003000000 0.000000000000  \
0.000003000100 0.000000000000  \
0.000004000000 0.000000000000  \
0.000004000100 0.000000000000  \
0.000005000000 0.000000000000  \
0.000005000100 0.000000000000  \
0.000006000000 0.000000000000  \
0.000006000100 0.000000000000  \
0.000007000000 0.000000000000  \
0.000007000100 0.000000000000  \
0.000008000000 0.000000000000  \
0.000008000100 0.000000000000  \
0.000009000000 0.000000000000  \
0.000009000100 0.000000000000  \
0.000010000000 0.000000000000  \
0.000010000100 0.000000000000  \
0.000011000000 0.000000000000  \
0.000011000100 0.000000000000  \
0.000012000000 0.000000000000  \
0.000012000100 0.000000000000  \
0.000013000000 0.000000000000  \
0.000013000100 0.000000000000  \
0.000014000000 0.000000000000  \
0.000014000100 0.000000000000  \
0.000015000000 0.000000000000  \
0.000015000100 0.000000000000  \
0.000016000000 0.000000000000  \
0.000016000100 0.000000000000  \
0.000017000000 0.000000000000  \
0.000017000100 0.000000000000] 

vbl_21 (BL\<21\> VSS) vsource type=pwl wave=[  \
0.000000000000 0.000000000000 \
0.000001000000 0.000000000000 \
0.000002000000 0.000000000000  \
0.000002000100 0.000000000000  \
0.000003000000 0.000000000000  \
0.000003000100 0.000000000000  \
0.000004000000 0.000000000000  \
0.000004000100 0.000000000000  \
0.000005000000 0.000000000000  \
0.000005000100 0.000000000000  \
0.000006000000 0.000000000000  \
0.000006000100 0.000000000000  \
0.000007000000 0.000000000000  \
0.000007000100 0.000000000000  \
0.000008000000 0.000000000000  \
0.000008000100 0.000000000000  \
0.000009000000 0.000000000000  \
0.000009000100 0.000000000000  \
0.000010000000 0.000000000000  \
0.000010000100 0.000000000000  \
0.000011000000 0.000000000000  \
0.000011000100 0.000000000000  \
0.000012000000 0.000000000000  \
0.000012000100 0.000000000000  \
0.000013000000 0.000000000000  \
0.000013000100 0.000000000000  \
0.000014000000 0.000000000000  \
0.000014000100 0.000000000000  \
0.000015000000 0.000000000000  \
0.000015000100 0.000000000000  \
0.000016000000 0.000000000000  \
0.000016000100 0.000000000000  \
0.000017000000 0.000000000000  \
0.000017000100 0.000000000000] 

vbl_22 (BL\<22\> VSS) vsource type=pwl wave=[  \
0.000000000000 0.000000000000 \
0.000001000000 0.000000000000 \
0.000002000000 0.000000000000  \
0.000002000100 0.000000000000  \
0.000003000000 0.000000000000  \
0.000003000100 0.000000000000  \
0.000004000000 0.000000000000  \
0.000004000100 0.000000000000  \
0.000005000000 0.000000000000  \
0.000005000100 0.000000000000  \
0.000006000000 0.000000000000  \
0.000006000100 0.000000000000  \
0.000007000000 0.000000000000  \
0.000007000100 0.000000000000  \
0.000008000000 0.000000000000  \
0.000008000100 0.000000000000  \
0.000009000000 0.000000000000  \
0.000009000100 0.000000000000  \
0.000010000000 0.000000000000  \
0.000010000100 0.000000000000  \
0.000011000000 0.000000000000  \
0.000011000100 0.000000000000  \
0.000012000000 0.000000000000  \
0.000012000100 0.000000000000  \
0.000013000000 0.000000000000  \
0.000013000100 0.000000000000  \
0.000014000000 0.000000000000  \
0.000014000100 0.000000000000  \
0.000015000000 0.000000000000  \
0.000015000100 0.000000000000  \
0.000016000000 0.000000000000  \
0.000016000100 0.000000000000  \
0.000017000000 0.000000000000  \
0.000017000100 0.000000000000] 

vbl_23 (BL\<23\> VSS) vsource type=pwl wave=[  \
0.000000000000 0.000000000000 \
0.000001000000 0.000000000000 \
0.000002000000 0.000000000000  \
0.000002000100 0.000000000000  \
0.000003000000 0.000000000000  \
0.000003000100 0.000000000000  \
0.000004000000 0.000000000000  \
0.000004000100 0.000000000000  \
0.000005000000 0.000000000000  \
0.000005000100 0.000000000000  \
0.000006000000 0.000000000000  \
0.000006000100 0.000000000000  \
0.000007000000 0.000000000000  \
0.000007000100 0.000000000000  \
0.000008000000 0.000000000000  \
0.000008000100 0.000000000000  \
0.000009000000 0.000000000000  \
0.000009000100 0.000000000000  \
0.000010000000 0.000000000000  \
0.000010000100 0.000000000000  \
0.000011000000 0.000000000000  \
0.000011000100 0.000000000000  \
0.000012000000 0.000000000000  \
0.000012000100 0.000000000000  \
0.000013000000 0.000000000000  \
0.000013000100 0.000000000000  \
0.000014000000 0.000000000000  \
0.000014000100 0.000000000000  \
0.000015000000 0.000000000000  \
0.000015000100 0.000000000000  \
0.000016000000 0.000000000000  \
0.000016000100 0.000000000000  \
0.000017000000 0.000000000000  \
0.000017000100 0.000000000000] 

vbl_24 (BL\<24\> VSS) vsource type=pwl wave=[  \
0.000000000000 0.000000000000 \
0.000001000000 0.000000000000 \
0.000002000000 0.000000000000  \
0.000002000100 0.000000000000  \
0.000003000000 0.000000000000  \
0.000003000100 0.000000000000  \
0.000004000000 0.000000000000  \
0.000004000100 0.000000000000  \
0.000005000000 0.000000000000  \
0.000005000100 0.000000000000  \
0.000006000000 0.000000000000  \
0.000006000100 0.000000000000  \
0.000007000000 0.000000000000  \
0.000007000100 0.000000000000  \
0.000008000000 0.000000000000  \
0.000008000100 0.000000000000  \
0.000009000000 0.000000000000  \
0.000009000100 0.000000000000  \
0.000010000000 0.000000000000  \
0.000010000100 0.000000000000  \
0.000011000000 0.000000000000  \
0.000011000100 0.000000000000  \
0.000012000000 0.000000000000  \
0.000012000100 0.000000000000  \
0.000013000000 0.000000000000  \
0.000013000100 0.000000000000  \
0.000014000000 0.000000000000  \
0.000014000100 0.000000000000  \
0.000015000000 0.000000000000  \
0.000015000100 0.000000000000  \
0.000016000000 0.000000000000  \
0.000016000100 0.000000000000  \
0.000017000000 0.000000000000  \
0.000017000100 0.000000000000] 

vbl_25 (BL\<25\> VSS) vsource type=pwl wave=[  \
0.000000000000 0.000000000000 \
0.000001000000 0.000000000000 \
0.000002000000 0.000000000000  \
0.000002000100 0.000000000000  \
0.000003000000 0.000000000000  \
0.000003000100 0.000000000000  \
0.000004000000 0.000000000000  \
0.000004000100 0.000000000000  \
0.000005000000 0.000000000000  \
0.000005000100 0.000000000000  \
0.000006000000 0.000000000000  \
0.000006000100 0.000000000000  \
0.000007000000 0.000000000000  \
0.000007000100 0.000000000000  \
0.000008000000 0.000000000000  \
0.000008000100 0.000000000000  \
0.000009000000 0.000000000000  \
0.000009000100 0.000000000000  \
0.000010000000 0.000000000000  \
0.000010000100 0.000000000000  \
0.000011000000 0.000000000000  \