simulator lang=spectre
vblb_0 (BLB\<0\> VSS) vsource type=pwl wave=[  \
0.000000000000 0.000000000000 \
0.000001000000 0.000000000000 \
0.000002000000 1.200000000000  \
0.000002000100 0.000000000000  \
0.000003000000 1.200000000000  \
0.000003000100 0.000000000000  \
0.000004000000 1.200000000000  \
0.000004000100 0.000000000000  \
0.000005000000 1.200000000000  \
0.000005000100 0.000000000000  \
0.000006000000 1.200000000000  \
0.000006000100 0.000000000000  \
0.000007000000 1.200000000000  \
0.000007000100 0.000000000000  \
0.000008000000 1.200000000000  \
0.000008000100 0.000000000000  \
0.000009000000 1.200000000000  \
0.000009000100 0.000000000000  \
0.000010000000 1.200000000000  \
0.000010000100 0.000000000000  \
0.000011000000 1.200000000000  \
0.000011000100 0.000000000000  \
0.000012000000 1.200000000000  \
0.000012000100 0.000000000000  \
0.000013000000 1.200000000000  \
0.000013000100 0.000000000000  \
0.000014000000 1.200000000000  \
0.000014000100 0.000000000000  \
0.000015000000 1.200000000000  \
0.000015000100 0.000000000000  \
0.000016000000 1.200000000000  \
0.000016000100 0.000000000000  \
0.000017000000 1.200000000000  \
0.000017000100 0.000000000000] 

vblb_1 (BLB\<1\> VSS) vsource type=pwl wave=[  \
0.000000000000 0.000000000000 \
0.000001000000 0.000000000000 \
0.000002000000 1.200000000000  \
0.000002000100 0.000000000000  \
0.000003000000 1.200000000000  \
0.000003000100 0.000000000000  \
0.000004000000 1.200000000000  \
0.000004000100 0.000000000000  \
0.000005000000 1.200000000000  \
0.000005000100 0.000000000000  \
0.000006000000 1.200000000000  \
0.000006000100 0.000000000000  \
0.000007000000 1.200000000000  \
0.000007000100 0.000000000000  \
0.000008000000 1.200000000000  \
0.000008000100 0.000000000000  \
0.000009000000 1.200000000000  \
0.000009000100 0.000000000000  \
0.000010000000 1.200000000000  \
0.000010000100 0.000000000000  \
0.000011000000 1.200000000000  \
0.000011000100 0.000000000000  \
0.000012000000 1.200000000000  \
0.000012000100 0.000000000000  \
0.000013000000 1.200000000000  \
0.000013000100 0.000000000000  \
0.000014000000 1.200000000000  \
0.000014000100 0.000000000000  \
0.000015000000 1.200000000000  \
0.000015000100 0.000000000000  \
0.000016000000 1.200000000000  \
0.000016000100 0.000000000000  \
0.000017000000 1.200000000000  \
0.000017000100 0.000000000000] 

vblb_2 (BLB\<2\> VSS) vsource type=pwl wave=[  \
0.000000000000 0.000000000000 \
0.000001000000 0.000000000000 \
0.000002000000 1.200000000000  \
0.000002000100 0.000000000000  \
0.000003000000 1.200000000000  \
0.000003000100 0.000000000000  \
0.000004000000 1.200000000000  \
0.000004000100 0.000000000000  \
0.000005000000 1.200000000000  \
0.000005000100 0.000000000000  \
0.000006000000 1.200000000000  \
0.000006000100 0.000000000000  \
0.000007000000 1.200000000000  \
0.000007000100 0.000000000000  \
0.000008000000 1.200000000000  \
0.000008000100 0.000000000000  \
0.000009000000 1.200000000000  \
0.000009000100 0.000000000000  \
0.000010000000 1.200000000000  \
0.000010000100 0.000000000000  \
0.000011000000 1.200000000000  \
0.000011000100 0.000000000000  \
0.000012000000 1.200000000000  \
0.000012000100 0.000000000000  \
0.000013000000 1.200000000000  \
0.000013000100 0.000000000000  \
0.000014000000 1.200000000000  \
0.000014000100 0.000000000000  \
0.000015000000 1.200000000000  \
0.000015000100 0.000000000000  \
0.000016000000 1.200000000000  \
0.000016000100 0.000000000000  \
0.000017000000 1.200000000000  \
0.000017000100 0.000000000000] 

vblb_3 (BLB\<3\> VSS) vsource type=pwl wave=[  \
0.000000000000 0.000000000000 \
0.000001000000 0.000000000000 \
0.000002000000 1.200000000000  \
0.000002000100 0.000000000000  \
0.000003000000 1.200000000000  \
0.000003000100 0.000000000000  \
0.000004000000 1.200000000000  \
0.000004000100 0.000000000000  \
0.000005000000 1.200000000000  \
0.000005000100 0.000000000000  \
0.000006000000 1.200000000000  \
0.000006000100 0.000000000000  \
0.000007000000 1.200000000000  \
0.000007000100 0.000000000000  \
0.000008000000 1.200000000000  \
0.000008000100 0.000000000000  \
0.000009000000 1.200000000000  \
0.000009000100 0.000000000000  \
0.000010000000 1.200000000000  \
0.000010000100 0.000000000000  \
0.000011000000 1.200000000000  \
0.000011000100 0.000000000000  \
0.000012000000 1.200000000000  \
0.000012000100 0.000000000000  \
0.000013000000 1.200000000000  \
0.000013000100 0.000000000000  \
0.000014000000 1.200000000000  \
0.000014000100 0.000000000000  \
0.000015000000 1.200000000000  \
0.000015000100 0.000000000000  \
0.000016000000 1.200000000000  \
0.000016000100 0.000000000000  \
0.000017000000 1.200000000000  \
0.000017000100 0.000000000000] 

vblb_4 (BLB\<4\> VSS) vsource type=pwl wave=[  \
0.000000000000 0.000000000000 \
0.000001000000 0.000000000000 \
0.000002000000 1.200000000000  \
0.000002000100 0.000000000000  \
0.000003000000 1.200000000000  \
0.000003000100 0.000000000000  \
0.000004000000 1.200000000000  \
0.000004000100 0.000000000000  \
0.000005000000 1.200000000000  \
0.000005000100 0.000000000000  \
0.000006000000 1.200000000000  \
0.000006000100 0.000000000000  \
0.000007000000 1.200000000000  \
0.000007000100 0.000000000000  \
0.000008000000 1.200000000000  \
0.000008000100 0.000000000000  \
0.000009000000 1.200000000000  \
0.000009000100 0.000000000000  \
0.000010000000 1.200000000000  \
0.000010000100 0.000000000000  \
0.000011000000 1.200000000000  \
0.000011000100 0.000000000000  \
0.000012000000 1.200000000000  \
0.000012000100 0.000000000000  \
0.000013000000 1.200000000000  \
0.000013000100 0.000000000000  \
0.000014000000 1.200000000000  \
0.000014000100 0.000000000000  \
0.000015000000 1.200000000000  \
0.000015000100 0.000000000000  \
0.000016000000 1.200000000000  \
0.000016000100 0.000000000000  \
0.000017000000 1.200000000000  \
0.000017000100 0.000000000000] 

vblb_5 (BLB\<5\> VSS) vsource type=pwl wave=[  \
0.000000000000 0.000000000000 \
0.000001000000 0.000000000000 \
0.000002000000 1.200000000000  \
0.000002000100 0.000000000000  \
0.000003000000 1.200000000000  \
0.000003000100 0.000000000000  \
0.000004000000 1.200000000000  \
0.000004000100 0.000000000000  \
0.000005000000 1.200000000000  \
0.000005000100 0.000000000000  \
0.000006000000 1.200000000000  \
0.000006000100 0.000000000000  \
0.000007000000 1.200000000000  \
0.000007000100 0.000000000000  \
0.000008000000 1.200000000000  \
0.000008000100 0.000000000000  \
0.000009000000 1.200000000000  \
0.000009000100 0.000000000000  \
0.000010000000 1.200000000000  \
0.000010000100 0.000000000000  \
0.000011000000 1.200000000000  \
0.000011000100 0.000000000000  \
0.000012000000 1.200000000000  \
0.000012000100 0.000000000000  \
0.000013000000 1.200000000000  \
0.000013000100 0.000000000000  \
0.000014000000 1.200000000000  \
0.000014000100 0.000000000000  \
0.000015000000 1.200000000000  \
0.000015000100 0.000000000000  \
0.000016000000 1.200000000000  \
0.000016000100 0.000000000000  \
0.000017000000 1.200000000000  \
0.000017000100 0.000000000000] 

vblb_6 (BLB\<6\> VSS) vsource type=pwl wave=[  \
0.000000000000 0.000000000000 \
0.000001000000 0.000000000000 \
0.000002000000 1.200000000000  \
0.000002000100 0.000000000000  \
0.000003000000 1.200000000000  \
0.000003000100 0.000000000000  \
0.000004000000 1.200000000000  \
0.000004000100 0.000000000000  \
0.000005000000 1.200000000000  \
0.000005000100 0.000000000000  \
0.000006000000 1.200000000000  \
0.000006000100 0.000000000000  \
0.000007000000 1.200000000000  \
0.000007000100 0.000000000000  \
0.000008000000 1.200000000000  \
0.000008000100 0.000000000000  \
0.000009000000 1.200000000000  \
0.000009000100 0.000000000000  \
0.000010000000 1.200000000000  \
0.000010000100 0.000000000000  \
0.000011000000 1.200000000000  \
0.000011000100 0.000000000000  \
0.000012000000 1.200000000000  \
0.000012000100 0.000000000000  \
0.000013000000 1.200000000000  \
0.000013000100 0.000000000000  \
0.000014000000 1.200000000000  \
0.000014000100 0.000000000000  \
0.000015000000 1.200000000000  \
0.000015000100 0.000000000000  \
0.000016000000 1.200000000000  \
0.000016000100 0.000000000000  \
0.000017000000 1.200000000000  \
0.000017000100 0.000000000000] 

vblb_7 (BLB\<7\> VSS) vsource type=pwl wave=[  \
0.000000000000 0.000000000000 \
0.000001000000 0.000000000000 \
0.000002000000 1.200000000000  \
0.000002000100 0.000000000000  \
0.000003000000 1.200000000000  \
0.000003000100 0.000000000000  \
0.000004000000 1.200000000000  \
0.000004000100 0.000000000000  \
0.000005000000 1.200000000000  \
0.000005000100 0.000000000000  \
0.000006000000 1.200000000000  \
0.000006000100 0.000000000000  \
0.000007000000 1.200000000000  \
0.000007000100 0.000000000000  \
0.000008000000 1.200000000000  \
0.000008000100 0.000000000000  \
0.000009000000 1.200000000000  \
0.000009000100 0.000000000000  \
0.000010000000 1.200000000000  \
0.000010000100 0.000000000000  \
0.000011000000 1.200000000000  \
0.000011000100 0.000000000000  \
0.000012000000 1.200000000000  \
0.000012000100 0.000000000000  \
0.000013000000 1.200000000000  \
0.000013000100 0.000000000000  \
0.000014000000 1.200000000000  \
0.000014000100 0.000000000000  \
0.000015000000 1.200000000000  \
0.000015000100 0.000000000000  \
0.000016000000 1.200000000000  \
0.000016000100 0.000000000000  \
0.000017000000 1.200000000000  \
0.000017000100 0.000000000000] 

vblb_8 (BLB\<8\> VSS) vsource type=pwl wave=[  \
0.000000000000 0.000000000000 \
0.000001000000 0.000000000000 \
0.000002000000 1.200000000000  \
0.000002000100 0.000000000000  \
0.000003000000 1.200000000000  \
0.000003000100 0.000000000000  \
0.000004000000 1.200000000000  \
0.000004000100 0.000000000000  \
0.000005000000 1.200000000000  \
0.000005000100 0.000000000000  \
0.000006000000 1.200000000000  \
0.000006000100 0.000000000000  \
0.000007000000 1.200000000000  \
0.000007000100 0.000000000000  \
0.000008000000 1.200000000000  \
0.000008000100 0.000000000000  \
0.000009000000 1.200000000000  \
0.000009000100 0.000000000000  \
0.000010000000 1.200000000000  \
0.000010000100 0.000000000000  \
0.000011000000 1.200000000000  \
0.000011000100 0.000000000000  \
0.000012000000 1.200000000000  \
0.000012000100 0.000000000000  \
0.000013000000 1.200000000000  \
0.000013000100 0.000000000000  \
0.000014000000 1.200000000000  \
0.000014000100 0.000000000000  \
0.000015000000 1.200000000000  \
0.000015000100 0.000000000000  \
0.000016000000 1.200000000000  \
0.000016000100 0.000000000000  \
0.000017000000 1.200000000000  \
0.000017000100 0.000000000000] 

vblb_9 (BLB\<9\> VSS) vsource type=pwl wave=[  \
0.000000000000 0.000000000000 \
0.000001000000 0.000000000000 \
0.000002000000 1.200000000000  \
0.000002000100 0.000000000000  \
0.000003000000 1.200000000000  \
0.000003000100 0.000000000000  \
0.000004000000 1.200000000000  \
0.000004000100 0.000000000000  \
0.000005000000 1.200000000000  \
0.000005000100 0.000000000000  \
0.000006000000 1.200000000000  \
0.000006000100 0.000000000000  \
0.000007000000 1.200000000000  \
0.000007000100 0.000000000000  \
0.000008000000 1.200000000000  \
0.000008000100 0.000000000000  \
0.000009000000 1.200000000000  \
0.000009000100 0.000000000000  \
0.000010000000 1.200000000000  \
0.000010000100 0.000000000000  \
0.000011000000 1.200000000000  \
0.000011000100 0.000000000000  \
0.000012000000 1.200000000000  \
0.000012000100 0.000000000000  \
0.000013000000 1.200000000000  \
0.000013000100 0.000000000000  \
0.000014000000 1.200000000000  \
0.000014000100 0.000000000000  \
0.000015000000 1.200000000000  \
0.000015000100 0.000000000000  \
0.000016000000 1.200000000000  \
0.000016000100 0.000000000000  \
0.000017000000 1.200000000000  \
0.000017000100 0.000000000000] 

vblb_10 (BLB\<10\> VSS) vsource type=pwl wave=[  \
0.000000000000 0.000000000000 \
0.000001000000 0.000000000000 \
0.000002000000 1.200000000000  \
0.000002000100 0.000000000000  \
0.000003000000 1.200000000000  \
0.000003000100 0.000000000000  \
0.000004000000 1.200000000000  \
0.000004000100 0.000000000000  \
0.000005000000 1.200000000000  \
0.000005000100 0.000000000000  \
0.000006000000 1.200000000000  \
0.000006000100 0.000000000000  \
0.000007000000 1.200000000000  \
0.000007000100 0.000000000000  \
0.000008000000 1.200000000000  \
0.000008000100 0.000000000000  \
0.000009000000 1.200000000000  \
0.000009000100 0.000000000000  \
0.000010000000 1.200000000000  \
0.000010000100 0.000000000000  \
0.000011000000 1.200000000000  \
0.000011000100 0.000000000000  \
0.000012000000 1.200000000000  \
0.000012000100 0.000000000000  \
0.000013000000 1.200000000000  \
0.000013000100 0.000000000000  \
0.000014000000 1.200000000000  \
0.000014000100 0.000000000000  \
0.000015000000 1.200000000000  \
0.000015000100 0.000000000000  \
0.000016000000 1.200000000000  \
0.000016000100 0.000000000000  \
0.000017000000 1.200000000000  \
0.000017000100 0.000000000000] 

vblb_11 (BLB\<11\> VSS) vsource type=pwl wave=[  \
0.000000000000 0.000000000000 \
0.000001000000 0.000000000000 \
0.000002000000 1.200000000000  \
0.000002000100 0.000000000000  \
0.000003000000 1.200000000000  \
0.000003000100 0.000000000000  \
0.000004000000 1.200000000000  \
0.000004000100 0.000000000000  \
0.000005000000 1.200000000000  \
0.000005000100 0.000000000000  \
0.000006000000 1.200000000000  \
0.000006000100 0.000000000000  \
0.000007000000 1.200000000000  \
0.000007000100 0.000000000000  \
0.000008000000 1.200000000000  \
0.000008000100 0.000000000000  \
0.000009000000 1.200000000000  \
0.000009000100 0.000000000000  \
0.000010000000 1.200000000000  \
0.000010000100 0.000000000000  \
0.000011000000 1.200000000000  \
0.000011000100 0.000000000000  \
0.000012000000 1.200000000000  \
0.000012000100 0.000000000000  \
0.000013000000 1.200000000000  \
0.000013000100 0.000000000000  \
0.000014000000 1.200000000000  \
0.000014000100 0.000000000000  \
0.000015000000 1.200000000000  \
0.000015000100 0.000000000000  \
0.000016000000 1.200000000000  \
0.000016000100 0.000000000000  \
0.000017000000 1.200000000000  \
0.000017000100 0.000000000000] 

vblb_12 (BLB\<12\> VSS) vsource type=pwl wave=[  \
0.000000000000 0.000000000000 \
0.000001000000 0.000000000000 \
0.000002000000 1.200000000000  \
0.000002000100 0.000000000000  \
0.000003000000 1.200000000000  \
0.000003000100 0.000000000000  \
0.000004000000 1.200000000000  \
0.000004000100 0.000000000000  \
0.000005000000 1.200000000000  \
0.000005000100 0.000000000000  \
0.000006000000 1.200000000000  \
0.000006000100 0.000000000000  \
0.000007000000 1.200000000000  \
0.000007000100 0.000000000000  \
0.000008000000 1.200000000000  \
0.000008000100 0.000000000000  \
0.000009000000 1.200000000000  \
0.000009000100 0.000000000000  \
0.000010000000 1.200000000000  \
0.000010000100 0.000000000000  \
0.000011000000 1.200000000000  \
0.000011000100 0.000000000000  \
0.000012000000 1.200000000000  \
0.000012000100 0.000000000000  \
0.000013000000 1.200000000000  \
0.000013000100 0.000000000000  \
0.000014000000 1.200000000000  \
0.000014000100 0.000000000000  \
0.000015000000 1.200000000000  \
0.000015000100 0.000000000000  \
0.000016000000 1.200000000000  \
0.000016000100 0.000000000000  \
0.000017000000 1.200000000000  \
0.000017000100 0.000000000000] 

vblb_13 (BLB\<13\> VSS) vsource type=pwl wave=[  \
0.000000000000 0.000000000000 \
0.000001000000 0.000000000000 \
0.000002000000 1.200000000000  \
0.000002000100 0.000000000000  \
0.000003000000 1.200000000000  \
0.000003000100 0.000000000000  \
0.000004000000 1.200000000000  \
0.000004000100 0.000000000000  \
0.000005000000 1.200000000000  \
0.000005000100 0.000000000000  \
0.000006000000 1.200000000000  \
0.000006000100 0.000000000000  \
0.000007000000 1.200000000000  \
0.000007000100 0.000000000000  \
0.000008000000 1.200000000000  \
0.000008000100 0.000000000000  \
0.000009000000 1.200000000000  \
0.000009000100 0.000000000000  \
0.000010000000 1.200000000000  \
0.000010000100 0.000000000000  \
0.000011000000 1.200000000000  \
0.000011000100 0.000000000000  \
0.000012000000 1.200000000000  \
0.000012000100 0.000000000000  \
0.000013000000 1.200000000000  \
0.000013000100 0.000000000000  \
0.000014000000 1.200000000000  \
0.000014000100 0.000000000000  \
0.000015000000 1.200000000000  \
0.000015000100 0.000000000000  \
0.000016000000 1.200000000000  \
0.000016000100 0.000000000000  \
0.000017000000 1.200000000000  \
0.000017000100 0.000000000000] 

vblb_14 (BLB\<14\> VSS) vsource type=pwl wave=[  \
0.000000000000 0.000000000000 \
0.000001000000 0.000000000000 \
0.000002000000 1.200000000000  \
0.000002000100 0.000000000000  \
0.000003000000 1.200000000000  \
0.000003000100 0.000000000000  \
0.000004000000 1.200000000000  \
0.000004000100 0.000000000000  \
0.000005000000 1.200000000000  \
0.000005000100 0.000000000000  \
0.000006000000 1.200000000000  \
0.000006000100 0.000000000000  \
0.000007000000 1.200000000000  \
0.000007000100 0.000000000000  \
0.000008000000 1.200000000000  \
0.000008000100 0.000000000000  \
0.000009000000 1.200000000000  \
0.000009000100 0.000000000000  \
0.000010000000 1.200000000000  \
0.000010000100 0.000000000000  \
0.000011000000 1.200000000000  \
0.000011000100 0.000000000000  \
0.000012000000 1.200000000000  \
0.000012000100 0.000000000000  \
0.000013000000 1.200000000000  \
0.000013000100 0.000000000000  \
0.000014000000 1.200000000000  \
0.000014000100 0.000000000000  \
0.000015000000 1.200000000000  \
0.000015000100 0.000000000000  \
0.000016000000 1.200000000000  \
0.000016000100 0.000000000000  \
0.000017000000 1.200000000000  \
0.000017000100 0.000000000000] 

vblb_15 (BLB\<15\> VSS) vsource type=pwl wave=[  \
0.000000000000 0.000000000000 \
0.000001000000 0.000000000000 \
0.000002000000 1.200000000000  \
0.000002000100 0.000000000000  \
0.000003000000 1.200000000000  \
0.000003000100 0.000000000000  \
0.000004000000 1.200000000000  \
0.000004000100 0.000000000000  \
0.000005000000 1.200000000000  \
0.000005000100 0.000000000000  \
0.000006000000 1.200000000000  \
0.000006000100 0.000000000000  \
0.000007000000 1.200000000000  \
0.000007000100 0.000000000000  \
0.000008000000 1.200000000000  \
0.000008000100 0.000000000000  \
0.000009000000 1.200000000000  \
0.000009000100 0.000000000000  \
0.000010000000 1.200000000000  \
0.000010000100 0.000000000000  \
0.000011000000 1.200000000000  \
0.000011000100 0.000000000000  \
0.000012000000 1.200000000000  \
0.000012000100 0.000000000000  \
0.000013000000 1.200000000000  \
0.000013000100 0.000000000000  \
0.000014000000 1.200000000000  \
0.000014000100 0.000000000000  \
0.000015000000 1.200000000000  \
0.000015000100 0.000000000000  \
0.000016000000 1.200000000000  \
0.000016000100 0.000000000000  \
0.000017000000 1.200000000000  \
0.000017000100 0.000000000000] 

vblb_16 (BLB\<16\> VSS) vsource type=pwl wave=[  \
0.000000000000 0.000000000000 \
0.000001000000 0.000000000000 \
0.000002000000 1.200000000000  \
0.000002000100 0.000000000000  \
0.000003000000 1.200000000000  \
0.000003000100 0.000000000000  \
0.000004000000 1.200000000000  \
0.000004000100 0.000000000000  \
0.000005000000 1.200000000000  \
0.000005000100 0.000000000000  \
0.000006000000 1.200000000000  \
0.000006000100 0.000000000000  \
0.000007000000 1.200000000000  \
0.000007000100 0.000000000000  \
0.000008000000 1.200000000000  \
0.000008000100 0.000000000000  \
0.000009000000 1.200000000000  \
0.000009000100 0.000000000000  \
0.000010000000 1.200000000000  \
0.000010000100 0.000000000000  \
0.000011000000 1.200000000000  \
0.000011000100 0.000000000000  \
0.000012000000 1.200000000000  \
0.000012000100 0.000000000000  \
0.000013000000 1.200000000000  \
0.000013000100 0.000000000000  \
0.000014000000 1.200000000000  \
0.000014000100 0.000000000000  \
0.000015000000 1.200000000000  \
0.000015000100 0.000000000000  \
0.000016000000 1.200000000000  \
0.000016000100 0.000000000000  \
0.000017000000 1.200000000000  \
0.000017000100 0.000000000000] 

vblb_17 (BLB\<17\> VSS) vsource type=pwl wave=[  \
0.000000000000 0.000000000000 \
0.000001000000 0.000000000000 \
0.000002000000 1.200000000000  \
0.000002000100 0.000000000000  \
0.000003000000 1.200000000000  \
0.000003000100 0.000000000000  \
0.000004000000 1.200000000000  \
0.000004000100 0.000000000000  \
0.000005000000 1.200000000000  \
0.000005000100 0.000000000000  \
0.000006000000 1.200000000000  \
0.000006000100 0.000000000000  \
0.000007000000 1.200000000000  \
0.000007000100 0.000000000000  \
0.000008000000 1.200000000000  \
0.000008000100 0.000000000000  \
0.000009000000 1.200000000000  \
0.000009000100 0.000000000000  \
0.000010000000 1.200000000000  \
0.000010000100 0.000000000000  \
0.000011000000 1.200000000000  \
0.000011000100 0.000000000000  \
0.000012000000 1.200000000000  \
0.000012000100 0.000000000000  \
0.000013000000 1.200000000000  \
0.000013000100 0.000000000000  \
0.000014000000 1.200000000000  \
0.000014000100 0.000000000000  \
0.000015000000 1.200000000000  \
0.000015000100 0.000000000000  \
0.000016000000 1.200000000000  \
0.000016000100 0.000000000000  \
0.000017000000 1.200000000000  \
0.000017000100 0.000000000000] 

vblb_18 (BLB\<18\> VSS) vsource type=pwl wave=[  \
0.000000000000 0.000000000000 \
0.000001000000 0.000000000000 \
0.000002000000 1.200000000000  \
0.000002000100 0.000000000000  \
0.000003000000 1.200000000000  \
0.000003000100 0.000000000000  \
0.000004000000 1.200000000000  \
0.000004000100 0.000000000000  \
0.000005000000 1.200000000000  \
0.000005000100 0.000000000000  \
0.000006000000 1.200000000000  \
0.000006000100 0.000000000000  \
0.000007000000 1.200000000000  \
0.000007000100 0.000000000000  \
0.000008000000 1.200000000000  \
0.000008000100 0.000000000000  \
0.000009000000 1.200000000000  \
0.000009000100 0.000000000000  \
0.000010000000 1.200000000000  \
0.000010000100 0.000000000000  \
0.000011000000 1.200000000000  \
0.000011000100 0.000000000000  \
0.000012000000 1.200000000000  \
0.000012000100 0.000000000000  \
0.000013000000 1.200000000000  \
0.000013000100 0.000000000000  \
0.000014000000 1.200000000000  \
0.000014000100 0.000000000000  \
0.000015000000 1.200000000000  \
0.000015000100 0.000000000000  \
0.000016000000 1.200000000000  \
0.000016000100 0.000000000000  \
0.000017000000 1.200000000000  \
0.000017000100 0.000000000000] 

vblb_19 (BLB\<19\> VSS) vsource type=pwl wave=[  \
0.000000000000 0.000000000000 \
0.000001000000 0.000000000000 \
0.000002000000 1.200000000000  \
0.000002000100 0.000000000000  \
0.000003000000 1.200000000000  \
0.000003000100 0.000000000000  \
0.000004000000 1.200000000000  \
0.000004000100 0.000000000000  \
0.000005000000 1.200000000000  \
0.000005000100 0.000000000000  \
0.000006000000 1.200000000000  \
0.000006000100 0.000000000000  \
0.000007000000 1.200000000000  \
0.000007000100 0.000000000000  \
0.000008000000 1.200000000000  \
0.000008000100 0.000000000000  \
0.000009000000 1.200000000000  \
0.000009000100 0.000000000000  \
0.000010000000 1.200000000000  \
0.000010000100 0.000000000000  \
0.000011000000 1.200000000000  \
0.000011000100 0.000000000000  \
0.000012000000 1.200000000000  \
0.000012000100 0.000000000000  \
0.000013000000 1.200000000000  \
0.000013000100 0.000000000000  \
0.000014000000 1.200000000000  \
0.000014000100 0.000000000000  \
0.000015000000 1.200000000000  \
0.000015000100 0.000000000000  \
0.000016000000 1.200000000000  \
0.000016000100 0.000000000000  \
0.000017000000 1.200000000000  \
0.000017000100 0.000000000000] 

vblb_20 (BLB\<20\> VSS) vsource type=pwl wave=[  \
0.000000000000 0.000000000000 \
0.000001000000 0.000000000000 \
0.000002000000 1.200000000000  \
0.000002000100 0.000000000000  \
0.000003000000 1.200000000000  \
0.000003000100 0.000000000000  \
0.000004000000 1.200000000000  \
0.000004000100 0.000000000000  \
0.000005000000 1.200000000000  \
0.000005000100 0.000000000000  \
0.000006000000 1.200000000000  \
0.000006000100 0.000000000000  \
0.000007000000 1.200000000000  \
0.000007000100 0.000000000000  \
0.000008000000 1.200000000000  \
0.000008000100 0.000000000000  \
0.000009000000 1.200000000000  \
0.000009000100 0.000000000000  \
0.000010000000 1.200000000000  \
0.000010000100 0.000000000000  \
0.000011000000 1.200000000000  \
0.000011000100 0.000000000000  \
0.000012000000 1.200000000000  \
0.000012000100 0.000000000000  \
0.000013000000 1.200000000000  \
0.000013000100 0.000000000000  \
0.000014000000 1.200000000000  \
0.000014000100 0.000000000000  \
0.000015000000 1.200000000000  \
0.000015000100 0.000000000000  \
0.000016000000 1.200000000000  \
0.000016000100 0.000000000000  \
0.000017000000 1.200000000000  \
0.000017000100 0.000000000000] 

vblb_21 (BLB\<21\> VSS) vsource type=pwl wave=[  \
0.000000000000 0.000000000000 \
0.000001000000 0.000000000000 \
0.000002000000 1.200000000000  \
0.000002000100 0.000000000000  \
0.000003000000 1.200000000000  \
0.000003000100 0.000000000000  \
0.000004000000 1.200000000000  \
0.000004000100 0.000000000000  \
0.000005000000 1.200000000000  \
0.000005000100 0.000000000000  \
0.000006000000 1.200000000000  \
0.000006000100 0.000000000000  \
0.000007000000 1.200000000000  \
0.000007000100 0.000000000000  \
0.000008000000 1.200000000000  \
0.000008000100 0.000000000000  \
0.000009000000 1.200000000000  \
0.000009000100 0.000000000000  \
0.000010000000 1.200000000000  \
0.000010000100 0.000000000000  \
0.000011000000 1.200000000000  \
0.000011000100 0.000000000000  \
0.000012000000 1.200000000000  \
0.000012000100 0.000000000000  \
0.000013000000 1.200000000000  \
0.000013000100 0.000000000000  \
0.000014000000 1.200000000000  \
0.000014000100 0.000000000000  \
0.000015000000 1.200000000000  \
0.000015000100 0.000000000000  \
0.000016000000 1.200000000000  \
0.000016000100 0.000000000000  \
0.000017000000 1.200000000000  \
0.000017000100 0.000000000000] 

vblb_22 (BLB\<22\> VSS) vsource type=pwl wave=[  \
0.000000000000 0.000000000000 \
0.000001000000 0.000000000000 \
0.000002000000 1.200000000000  \
0.000002000100 0.000000000000  \
0.000003000000 1.200000000000  \
0.000003000100 0.000000000000  \
0.000004000000 1.200000000000  \
0.000004000100 0.000000000000  \
0.000005000000 1.200000000000  \
0.000005000100 0.000000000000  \
0.000006000000 1.200000000000  \
0.000006000100 0.000000000000  \
0.000007000000 1.200000000000  \
0.000007000100 0.000000000000  \
0.000008000000 1.200000000000  \
0.000008000100 0.000000000000  \
0.000009000000 1.200000000000  \
0.000009000100 0.000000000000  \
0.000010000000 1.200000000000  \
0.000010000100 0.000000000000  \
0.000011000000 1.200000000000  \
0.000011000100 0.000000000000  \
0.000012000000 1.200000000000  \
0.000012000100 0.000000000000  \
0.000013000000 1.200000000000  \
0.000013000100 0.000000000000  \
0.000014000000 1.200000000000  \
0.000014000100 0.000000000000  \
0.000015000000 1.200000000000  \
0.000015000100 0.000000000000  \
0.000016000000 1.200000000000  \
0.000016000100 0.000000000000  \
0.000017000000 1.200000000000  \
0.000017000100 0.000000000000] 

vblb_23 (BLB\<23\> VSS) vsource type=pwl wave=[  \
0.000000000000 0.000000000000 \
0.000001000000 0.000000000000 \
0.000002000000 1.200000000000  \
0.000002000100 0.000000000000  \
0.000003000000 1.200000000000  \
0.000003000100 0.000000000000  \
0.000004000000 1.200000000000  \
0.000004000100 0.000000000000  \
0.000005000000 1.200000000000  \
0.000005000100 0.000000000000  \
0.000006000000 1.200000000000  \
0.000006000100 0.000000000000  \
0.000007000000 1.200000000000  \
0.000007000100 0.000000000000  \
0.000008000000 1.200000000000  \
0.000008000100 0.000000000000  \
0.000009000000 1.200000000000  \
0.000009000100 0.000000000000  \
0.000010000000 1.200000000000  \
0.000010000100 0.000000000000  \
0.000011000000 1.200000000000  \
0.000011000100 0.000000000000  \
0.000012000000 1.200000000000  \
0.000012000100 0.000000000000  \
0.000013000000 1.200000000000  \
0.000013000100 0.000000000000  \
0.000014000000 1.200000000000  \
0.000014000100 0.000000000000  \
0.000015000000 1.200000000000  \
0.000015000100 0.000000000000  \
0.000016000000 1.200000000000  \
0.000016000100 0.000000000000  \
0.000017000000 1.200000000000  \
0.000017000100 0.000000000000] 

vblb_24 (BLB\<24\> VSS) vsource type=pwl wave=[  \
0.000000000000 0.000000000000 \
0.000001000000 0.000000000000 \
0.000002000000 1.200000000000  \
0.000002000100 0.000000000000  \
0.000003000000 1.200000000000  \
0.000003000100 0.000000000000  \
0.000004000000 1.200000000000  \
0.000004000100 0.000000000000  \
0.000005000000 1.200000000000  \
0.000005000100 0.000000000000  \
0.000006000000 1.200000000000  \
0.000006000100 0.000000000000  \
0.000007000000 1.200000000000  \
0.000007000100 0.000000000000  \
0.000008000000 1.200000000000  \
0.000008000100 0.000000000000  \
0.000009000000 1.200000000000  \
0.000009000100 0.000000000000  \
0.000010000000 1.200000000000  \
0.000010000100 0.000000000000  \
0.000011000000 1.200000000000  \
0.000011000100 0.000000000000  \
0.000012000000 1.200000000000  \
0.000012000100 0.000000000000  \
0.000013000000 1.200000000000  \
0.000013000100 0.000000000000  \
0.000014000000 1.200000000000  \
0.000014000100 0.000000000000  \
0.000015000000 1.200000000000  \
0.000015000100 0.000000000000  \
0.000016000000 1.200000000000  \
0.000016000100 0.000000000000  \
0.000017000000 1.200000000000  \
0.000017000100 0.000000000000] 

vblb_25 (BLB\<25\> VSS) vsource type=pwl wave=[  \
0.000000000000 0.000000000000 \
0.000001000000 0.000000000000 \
0.000002000000 1.200000000000  \
0.000002000100 0.000000000000  \
0.000003000000 1.200000000000  \
0.000003000100 0.000000000000  \
0.000004000000 1.200000000000  \
0.000004000100 0.000000000000  \
0.000005000000 1.200000000000  \
0.000005000100 0.000000000000  \
0.000006000000 1.200000000000  \
0.000006000100 0.000000000000  \
0.000007000000 1.200000000000  \
0.000007000100 0.000000000000  \
0.000008000000 1.200000000000  \
0.000008000100 0.000000000000  \
0.000009000000 1.200000000000  \
0.000009000100 0.000000000000  \
0.000010000000 1.200000000000  \
0.000010000100 0.000000000000  \