simulator lang=spectre
vwbl_0 (WBLL\<0\> VSS) vsource type=pwl wave=[  \
0.000000000020 0.000000000000 \
0.000000001000 0.000000000000 \
0.000000002000 0.000000000000 \
0.000000003000 0.000000000000 \
0.000000004000 0.000000000000 \
0.000000005000 0.000000000000 \
0.000000005020 0.000000000000 \
0.000000006000 0.000000000000 \
0.000000007000 0.000000000000 \
0.000000007020 0.800000000000 \
0.000000008000 0.800000000000 \
0.000000009000 0.800000000000 \
0.000000010000 0.800000000000 \
0.000000011000 0.800000000000 \
0.000000012000 0.800000000000 \
0.000000012020 0.000000000000 \
0.000000013000 0.000000000000 \
0.000000014000 0.000000000000 \
0.000000014020 0.800000000000 \
0.000000015000 0.800000000000 \
0.000000016000 0.800000000000 \
0.000000017000 0.800000000000 \
0.000000018000 0.800000000000 \
0.000000019000 0.800000000000 \
0.000000019020 0.000000000000 \
0.000000020000 0.000000000000 \
0.000000021000 0.000000000000 \
0.000000021020 0.800000000000 \
0.000000022000 0.800000000000 \
0.000000023000 0.800000000000 \
0.000000024000 0.800000000000 \
0.000000025000 0.800000000000 \
0.000000026000 0.800000000000 \
0.000000026020 0.000000000000 \
0.000000027000 0.000000000000 \
0.000000028000 0.000000000000 \
0.000000028020 0.800000000000 \
0.000000029000 0.800000000000 \
0.000000030000 0.800000000000 \
0.000000031000 0.800000000000 \
0.000000032000 0.800000000000 \
0.000000033000 0.800000000000 \
0.000000033020 0.000000000000 \
0.000000034000 0.000000000000 \
0.000000035000 0.000000000000 \
0.000000035020 0.800000000000 \
0.000000036000 0.800000000000 \
0.000000037000 0.800000000000 \
0.000000038000 0.800000000000 \
0.000000039000 0.800000000000 \
0.000000040000 0.800000000000 \
0.000000040020 0.000000000000 \
0.000000041000 0.000000000000 \
0.000000042000 0.000000000000 \
0.000000042020 0.000000000000 \
0.000000043000 0.000000000000 \
0.000000044000 0.000000000000 \
0.000000045000 0.000000000000 \
0.000000046000 0.000000000000 \
0.000000047000 0.000000000000 \
0.000000047020 0.000000000000 \
0.000000048000 0.000000000000 \
0.000000049000 0.000000000000 \
0.000000049020 0.800000000000 \
0.000000050000 0.800000000000 \
0.000000051000 0.800000000000 \
0.000000052000 0.800000000000 \
0.000000053000 0.800000000000 \
0.000000054000 0.800000000000 \
0.000000054020 0.000000000000 \
0.000000055000 0.000000000000 \
0.000000056000 0.000000000000 \
0.000000056020 0.800000000000 \
0.000000057000 0.800000000000 \
0.000000058000 0.800000000000 \
0.000000059000 0.800000000000 \
0.000000060000 0.800000000000 \
0.000000061000 0.800000000000 \
0.000000061020 0.000000000000 \
0.000000062000 0.000000000000 \
0.000000063000 0.000000000000 \
0.000000063020 0.800000000000 \
0.000000064000 0.800000000000 \
0.000000065000 0.800000000000 \
0.000000066000 0.800000000000 \
0.000000067000 0.800000000000 \
0.000000068000 0.800000000000 \
0.000000068020 0.000000000000 \
0.000000069000 0.000000000000 \
0.000000070000 0.000000000000 \
0.000000070020 0.800000000000 \
0.000000071000 0.800000000000 \
0.000000072000 0.800000000000 \
0.000000073000 0.800000000000 \
0.000000074000 0.800000000000 \
0.000000075000 0.800000000000 \
0.000000075020 0.000000000000 \
0.000000076000 0.000000000000 \
0.000000077000 0.000000000000 \
0.000000077020 0.800000000000 \
0.000000078000 0.800000000000 \
0.000000079000 0.800000000000 \
0.000000080000 0.800000000000 \
0.000000081000 0.800000000000 \
0.000000082000 0.800000000000 \
0.000000082020 0.000000000000 \
0.000000083000 0.000000000000 \
0.000000084000 0.000000000000 \
0.000000084020 0.800000000000 \
0.000000085000 0.800000000000 \
0.000000086000 0.800000000000 \
0.000000087000 0.800000000000 \
0.000000088000 0.800000000000 \
0.000000089000 0.800000000000 \
0.000000089020 0.000000000000 \
0.000000090000 0.000000000000 \
0.000000091000 0.000000000000 \
0.000000091020 0.800000000000 \
0.000000092000 0.800000000000 \
0.000000093000 0.800000000000 \
0.000000094000 0.800000000000 \
0.000000095000 0.800000000000 \
0.000000096000 0.800000000000 \
0.000000096020 0.000000000000 \
0.000000097000 0.000000000000 \
0.000000098000 0.000000000000 \
0.000000098020 0.000000000000 \
0.000000099000 0.000000000000 \
0.000000100000 0.000000000000 \
0.000000101000 0.000000000000 \
0.000000102000 0.000000000000 \
0.000000103000 0.000000000000 \
0.000000103020 0.000000000000 \
0.000000104000 0.000000000000 \
0.000000105000 0.000000000000 \
0.000000105020 0.000000000000 \
0.000000106000 0.000000000000 \
0.000000107000 0.000000000000 \
0.000000108000 0.000000000000 \
0.000000109000 0.000000000000 \
0.000000110000 0.000000000000 \
0.000000110020 0.000000000000 \
0.000000111000 0.000000000000 \
0.000000112000 0.000000000000 \
0.000000112020 0.800000000000 \
0.000000113000 0.800000000000 \
0.000000114000 0.800000000000 \
0.000000115000 0.800000000000 \
0.000000116000 0.800000000000 \
0.000000117000 0.800000000000 \
0.000000117020 0.000000000000 \
0.000000118000 0.000000000000 \
0.000000119000 0.000000000000 \
0.000000119020 0.800000000000 \
0.000000120000 0.800000000000 \
0.000000121000 0.800000000000 \
0.000000122000 0.800000000000 \
0.000000123000 0.800000000000 \
0.000000124000 0.800000000000 \
0.000000124020 0.000000000000 \
0.000000125000 0.000000000000 \
0.000000126000 0.000000000000 \
0.000000126020 0.800000000000 \
0.000000127000 0.800000000000 \
0.000000128000 0.800000000000 \
0.000000129000 0.800000000000 \
0.000000130000 0.800000000000 \
0.000000131000 0.800000000000 \
0.000000131020 0.000000000000 \
0.000000132000 0.000000000000 \
0.000000133000 0.000000000000 \
0.000000133020 0.800000000000 \
0.000000134000 0.800000000000 \
0.000000135000 0.800000000000 \
0.000000136000 0.800000000000 \
0.000000137000 0.800000000000 \
0.000000138000 0.800000000000 \
0.000000138020 0.000000000000 \
0.000000139000 0.000000000000 \
0.000000140000 0.000000000000 \
0.000000140020 0.800000000000 \
0.000000141000 0.800000000000 \
0.000000142000 0.800000000000 \
0.000000143000 0.800000000000 \
0.000000144000 0.800000000000 \
0.000000145000 0.800000000000 \
0.000000145020 0.000000000000 \
0.000000146000 0.000000000000 \
0.000000147000 0.000000000000 \
0.000000147020 0.800000000000 \
0.000000148000 0.800000000000 \
0.000000149000 0.800000000000 \
0.000000150000 0.800000000000 \
0.000000151000 0.800000000000 \
0.000000152000 0.800000000000 \
0.000000152020 0.000000000000 \
0.000000153000 0.000000000000 \
0.000000154000 0.000000000000 \
0.000000154020 0.000000000000 \
0.000000155000 0.000000000000 \
0.000000156000 0.000000000000 \
0.000000157000 0.000000000000 \
0.000000158000 0.000000000000 \
0.000000159000 0.000000000000 \
0.000000159020 0.000000000000 \
0.000000160000 0.000000000000 \
0.000000161000 0.000000000000 \
0.000000161020 0.800000000000 \
0.000000162000 0.800000000000 \
0.000000163000 0.800000000000 \
0.000000164000 0.800000000000 \
0.000000165000 0.800000000000 \
0.000000166000 0.800000000000 \
0.000000166020 0.000000000000 \
0.000000167000 0.000000000000 \
0.000000168000 0.000000000000 \
0.000000168020 0.800000000000 \
0.000000169000 0.800000000000 \
0.000000170000 0.800000000000 \
0.000000171000 0.800000000000 \
0.000000172000 0.800000000000 \
0.000000173000 0.800000000000 \
0.000000173020 0.000000000000 \
0.000000174000 0.000000000000 \
0.000000175000 0.000000000000 \
0.000000175020 0.800000000000 \
0.000000176000 0.800000000000 \
0.000000177000 0.800000000000 \
0.000000178000 0.800000000000 \
0.000000179000 0.800000000000 \
0.000000180000 0.800000000000 \
0.000000180020 0.000000000000 \
0.000000181000 0.000000000000 \
0.000000182000 0.000000000000 \
0.000000182020 0.800000000000 \
0.000000183000 0.800000000000 \
0.000000184000 0.800000000000 \
0.000000185000 0.800000000000 \
0.000000186000 0.800000000000 \
0.000000187000 0.800000000000 \
0.000000187020 0.000000000000 \
0.000000188000 0.000000000000 \
0.000000189000 0.000000000000 \
0.000000189020 0.800000000000 \
0.000000190000 0.800000000000 \
0.000000191000 0.800000000000 \
0.000000192000 0.800000000000 \
0.000000193000 0.800000000000 \
0.000000194000 0.800000000000 \
0.000000194020 0.000000000000 \
0.000000195000 0.000000000000 \
0.000000196000 0.000000000000 \
0.000000196020 0.800000000000 \
0.000000197000 0.800000000000 \
0.000000198000 0.800000000000 \
0.000000199000 0.800000000000 \
0.000000200000 0.800000000000 \
0.000000201000 0.800000000000 \
0.000000201020 0.000000000000 \
0.000000202000 0.000000000000 \
0.000000203000 0.000000000000 \
0.000000203020 0.800000000000 \
0.000000204000 0.800000000000 \
0.000000205000 0.800000000000 \
0.000000206000 0.800000000000 \
0.000000207000 0.800000000000 \
0.000000208000 0.800000000000 \
0.000000208020 0.000000000000 \
0.000000209000 0.000000000000 \
0.000000210000 0.000000000000 \
0.000000210020 0.000000000000 \
0.000000211000 0.000000000000 \
0.000000212000 0.000000000000 \
0.000000213000 0.000000000000 \
0.000000214000 0.000000000000 \
0.000000215000 0.000000000000 \
0.000000215020 0.000000000000 \
0.000000216000 0.000000000000 \
0.000000217000 0.000000000000 \
0.000000217020 0.000000000000 \
0.000000218000 0.000000000000 \
0.000000219000 0.000000000000 \
0.000000220000 0.000000000000 \
0.000000221000 0.000000000000 \
0.000000222000 0.000000000000 \
0.000000222020 0.000000000000 \
0.000000223000 0.000000000000 \
0.000000224000 0.000000000000 \
0.000000224020 0.000000000000 \
0.000000225000 0.000000000000 \
0.000000226000 0.000000000000 \
0.000000227000 0.000000000000 \
0.000000228000 0.000000000000 \
0.000000229000 0.000000000000 \
0.000000229020 0.000000000000 \
0.000000230000 0.000000000000 \
0.000000231000 0.000000000000 \
0.000000231020 0.000000000000 \
0.000000232000 0.000000000000 \
0.000000233000 0.000000000000 \
0.000000234000 0.000000000000 \
0.000000235000 0.000000000000 \
0.000000236000 0.000000000000 \
0.000000236020 0.000000000000 \
0.000000237000 0.000000000000 \
0.000000238000 0.000000000000 \
0.000000238020 0.800000000000 \
0.000000239000 0.800000000000 \
0.000000240000 0.800000000000 \
0.000000241000 0.800000000000 \
0.000000242000 0.800000000000 \
0.000000243000 0.800000000000 \
0.000000243020 0.000000000000 \
0.000000244000 0.000000000000 \
0.000000245000 0.000000000000 \
0.000000245020 0.800000000000 \
0.000000246000 0.800000000000 \
0.000000247000 0.800000000000 \
0.000000248000 0.800000000000 \
0.000000249000 0.800000000000 \
0.000000250000 0.800000000000 \
0.000000250020 0.000000000000 \
0.000000251000 0.000000000000 \
0.000000252000 0.000000000000 \
0.000000252020 0.000000000000 \
0.000000253000 0.000000000000 \
0.000000254000 0.000000000000 \
0.000000255000 0.000000000000 \
0.000000256000 0.000000000000 \
0.000000257000 0.000000000000 \
0.000000257020 0.000000000000 \
0.000000258000 0.000000000000 \
0.000000259000 0.000000000000 \
0.000000259020 0.000000000000 \
0.000000260000 0.000000000000 \
0.000000261000 0.000000000000 \
0.000000262000 0.000000000000 \
0.000000263000 0.000000000000 \
0.000000264000 0.000000000000 \
0.000000264020 0.000000000000 \
0.000000265000 0.000000000000 \
0.000000266000 0.000000000000 \
0.000000266020 0.000000000000 \
0.000000267000 0.000000000000 \
0.000000268000 0.000000000000 \
0.000000269000 0.000000000000 \
0.000000270000 0.000000000000 \
0.000000271000 0.000000000000 \
0.000000271020 0.000000000000 \
0.000000272000 0.000000000000 \
0.000000273000 0.000000000000 \
0.000000273020 0.800000000000 \
0.000000274000 0.800000000000 \
0.000000275000 0.800000000000 \
0.000000276000 0.800000000000 \
0.000000277000 0.800000000000 \
0.000000278000 0.800000000000 \
0.000000278020 0.000000000000 \
0.000000279000 0.000000000000 \
0.000000280000 0.000000000000 \
0.000000280020 0.800000000000 \
0.000000281000 0.800000000000 \
0.000000282000 0.800000000000 \
0.000000283000 0.800000000000 \
0.000000284000 0.800000000000 \
0.000000285000 0.800000000000 \
0.000000285020 0.000000000000 \
0.000000286000 0.000000000000 \
0.000000287000 0.000000000000 \
0.000000287020 0.000000000000 \
0.000000288000 0.000000000000 \
0.000000289000 0.000000000000 \
0.000000290000 0.000000000000 \
0.000000291000 0.000000000000 \
0.000000292000 0.000000000000 \
0.000000292020 0.000000000000 \
0.000000293000 0.000000000000 \
0.000000294000 0.000000000000 \
0.000000294020 0.000000000000 \
0.000000295000 0.000000000000 \
0.000000296000 0.000000000000 \
0.000000297000 0.000000000000 \
0.000000298000 0.000000000000 \
0.000000299000 0.000000000000 \
0.000000299020 0.000000000000 \
0.000000300000 0.000000000000 \
0.000000301000 0.000000000000 \
0.000000301020 0.000000000000 \
0.000000302000 0.000000000000 \
0.000000303000 0.000000000000 \
0.000000304000 0.000000000000 \
0.000000305000 0.000000000000 \
0.000000306000 0.000000000000 \
0.000000306020 0.000000000000 \
0.000000307000 0.000000000000 \
0.000000308000 0.000000000000 \
0.000000308020 0.000000000000 \
0.000000309000 0.000000000000 \
0.000000310000 0.000000000000 \
0.000000311000 0.000000000000 \
0.000000312000 0.000000000000 \
0.000000313000 0.000000000000 \
0.000000313020 0.000000000000 \
0.000000314000 0.000000000000 \
0.000000315000 0.000000000000 \
0.000000315020 0.000000000000 \
0.000000316000 0.000000000000 \
0.000000317000 0.000000000000 \
0.000000318000 0.000000000000 \
0.000000319000 0.000000000000 \
0.000000320000 0.000000000000 \
0.000000320020 0.000000000000 \
0.000000321000 0.000000000000 \
0.000000322000 0.000000000000 \
0.000000322020 0.000000000000 \
0.000000323000 0.000000000000 \
0.000000324000 0.000000000000 \
0.000000325000 0.000000000000 \
0.000000326000 0.000000000000 \
0.000000327000 0.000000000000 \
0.000000327020 0.000000000000 \
0.000000328000 0.000000000000 \
0.000000329000 0.000000000000 \
0.000000329020 0.000000000000 \
0.000000330000 0.000000000000 \
0.000000331000 0.000000000000 \
0.000000332000 0.000000000000 \
0.000000333000 0.000000000000 \
0.000000334000 0.000000000000 \
0.000000334020 0.000000000000 \
0.000000335000 0.000000000000 \
0.000000336000 0.000000000000 \
0.000000336020 0.000000000000 \
0.000000337000 0.000000000000 \
0.000000338000 0.000000000000 \
0.000000339000 0.000000000000 \
0.000000340000 0.000000000000 \
0.000000341000 0.000000000000 \
0.000000341020 0.000000000000 \
0.000000342000 0.000000000000 \
0.000000343000 0.000000000000 \
0.000000343020 0.000000000000 \
0.000000344000 0.000000000000 \
0.000000345000 0.000000000000 \
0.000000346000 0.000000000000 \
0.000000347000 0.000000000000 \
0.000000348000 0.000000000000 \
0.000000348020 0.000000000000 \
0.000000349000 0.000000000000 \
0.000000350000 0.000000000000 \
0.000000350020 0.800000000000 \
0.000000351000 0.800000000000 \
0.000000352000 0.800000000000 \
0.000000353000 0.800000000000 \
0.000000354000 0.800000000000 \
0.000000355000 0.800000000000 \
0.000000355020 0.000000000000 \
0.000000356000 0.000000000000 \
0.000000357000 0.000000000000 \
0.000000357020 0.800000000000 \
0.000000358000 0.800000000000 \
0.000000359000 0.800000000000 \
0.000000360000 0.800000000000 \
0.000000361000 0.800000000000 \
0.000000362000 0.800000000000 \
0.000000362020 0.000000000000 \
0.000000363000 0.000000000000 \
0.000000364000 0.000000000000 \
0.000000364020 0.000000000000 \
0.000000365000 0.000000000000 \
0.000000366000 0.000000000000 \
0.000000367000 0.000000000000 \
0.000000368000 0.000000000000 \
0.000000369000 0.000000000000 \
0.000000369020 0.000000000000 \
0.000000370000 0.000000000000 \
0.000000371000 0.000000000000 \
0.000000371020 0.000000000000 \
0.000000372000 0.000000000000 \
0.000000373000 0.000000000000 \
0.000000374000 0.000000000000 \
0.000000375000 0.000000000000 \
0.000000376000 0.000000000000 \
0.000000376020 0.000000000000 \
0.000000377000 0.000000000000 \
0.000000378000 0.000000000000 \
0.000000378020 0.000000000000 \
0.000000379000 0.000000000000 \
0.000000380000 0.000000000000 \
0.000000381000 0.000000000000 \
0.000000382000 0.000000000000 \
0.000000383000 0.000000000000 \
0.000000383020 0.000000000000 \
0.000000384000 0.000000000000 \
0.000000385000 0.000000000000 \
0.000000385020 0.800000000000 \
0.000000386000 0.800000000000 \
0.000000387000 0.800000000000 \
0.000000388000 0.800000000000 \
0.000000389000 0.800000000000 \
0.000000390000 0.800000000000 \
0.000000390020 0.000000000000 \
0.000000391000 0.000000000000 \
0.000000392000 0.000000000000 \
0.000000392020 0.800000000000 \
0.000000393000 0.800000000000 \
0.000000394000 0.800000000000 \
0.000000395000 0.800000000000 \
0.000000396000 0.800000000000 \
0.000000397000 0.800000000000 \
0.000000397020 0.000000000000 \
0.000000398000 0.000000000000 \
0.000000399000 0.000000000000 \
0.000000399020 0.000000000000 \
0.000000400000 0.000000000000 \
0.000000401000 0.000000000000 \
0.000000402000 0.000000000000 \
0.000000403000 0.000000000000 \
0.000000404000 0.000000000000 \
0.000000404020 0.000000000000 \
0.000000405000 0.000000000000 \
0.000000406000 0.000000000000 \
0.000000406020 0.000000000000 \
0.000000407000 0.000000000000 \
0.000000408000 0.000000000000 \
0.000000409000 0.000000000000 \
0.000000410000 0.000000000000 \
0.000000411000 0.000000000000 \
0.000000411020 0.000000000000 \
0.000000412000 0.000000000000 \
0.000000413000 0.000000000000 \
0.000000413020 0.000000000000 \
0.000000414000 0.000000000000 \
0.000000415000 0.000000000000 \
0.000000416000 0.000000000000 \
0.000000417000 0.000000000000 \
0.000000418000 0.000000000000 \
0.000000418020 0.000000000000 \
0.000000419000 0.000000000000 \
0.000000420000 0.000000000000 \
0.000000420020 0.000000000000 \
0.000000421000 0.000000000000 \
0.000000422000 0.000000000000 \
0.000000423000 0.000000000000 \
0.000000424000 0.000000000000 \
0.000000425000 0.000000000000 \
0.000000425020 0.000000000000 \
0.000000426000 0.000000000000 \
0.000000427000 0.000000000000 \
0.000000427020 0.000000000000 \
0.000000428000 0.000000000000 \
0.000000429000 0.000000000000 \
0.000000430000 0.000000000000 \
0.000000431000 0.000000000000 \
0.000000432000 0.000000000000 \
0.000000432020 0.000000000000 \
0.000000433000 0.000000000000 \
0.000000434000 0.000000000000 \
0.000000434020 0.000000000000 \
0.000000435000 0.000000000000 \
0.000000436000 0.000000000000 \
0.000000437000 0.000000000000 \
0.000000438000 0.000000000000 \
0.000000439000 0.000000000000 \
0.000000439020 0.000000000000 \
0.000000440000 0.000000000000 \
0.000000441000 0.000000000000 \
0.000000441020 0.000000000000 \
0.000000442000 0.000000000000 \
0.000000443000 0.000000000000 \
0.000000444000 0.000000000000 \
0.000000445000 0.000000000000 \
0.000000446000 0.000000000000 \
0.000000446020 0.000000000000 \
0.000000447000 0.000000000000 \
0.000000448000 0.000000000000 \
0.000000448020 0.000000000000 \
0.000000449000 0.000000000000 \
0.000000450000 0.000000000000 \
0.000000451000 0.000000000000 \
0.000000452000 0.000000000000 \
0.000000453000 0.000000000000 \
0.000000453020 0.000000000000 \
0.000000454000 0.000000000000 \
0.000000455000 0.000000000000 \
0.000000455020 0.000000000000 \
0.000000456000 0.000000000000 \
0.000000457000 0.000000000000 \
0.000000458000 0.000000000000 \
0.000000459000 0.000000000000 \
0.000000460000 0.000000000000 \
0.000000460020 0.000000000000 \
0.000000461000 0.000000000000 \
0.000000462000 0.000000000000 \
0.000000462020 0.800000000000 \
0.000000463000 0.800000000000 \
0.000000464000 0.800000000000 \
0.000000465000 0.800000000000 \
0.000000466000 0.800000000000 \
0.000000467000 0.800000000000 \
0.000000467020 0.000000000000 \
0.000000468000 0.000000000000 \
0.000000469000 0.000000000000 \
0.000000469020 0.800000000000 \
0.000000470000 0.800000000000 \
0.000000471000 0.800000000000 \
0.000000472000 0.800000000000 \
0.000000473000 0.800000000000 \
0.000000474000 0.800000000000 \
0.000000474020 0.000000000000 \
0.000000475000 0.000000000000 \
0.000000476000 0.000000000000 \
0.000000476020 0.000000000000 \
0.000000477000 0.000000000000 \
0.000000478000 0.000000000000 \
0.000000479000 0.000000000000 \
0.000000480000 0.000000000000 \
0.000000481000 0.000000000000 \
0.000000481020 0.000000000000 \
0.000000482000 0.000000000000 \
0.000000483000 0.000000000000 \
0.000000483020 0.000000000000 \
0.000000484000 0.000000000000 \
0.000000485000 0.000000000000 \
0.000000486000 0.000000000000 \
0.000000487000 0.000000000000 \
0.000000488000 0.000000000000 \
0.000000488020 0.000000000000 \
0.000000489000 0.000000000000 \
0.000000490000 0.000000000000 \
0.000000490020 0.000000000000 \
0.000000491000 0.000000000000 \
0.000000492000 0.000000000000 \
0.000000493000 0.000000000000 \
0.000000494000 0.000000000000 \
0.000000495000 0.000000000000 \
0.000000495020 0.000000000000 \
0.000000496000 0.000000000000 \
0.000000497000 0.000000000000 \
0.000000497020 0.800000000000 \
0.000000498000 0.800000000000 \
0.000000499000 0.800000000000 \
0.000000500000 0.800000000000 \
0.000000501000 0.800000000000 \
0.000000502000 0.800000000000 \
0.000000502020 0.000000000000 \
0.000000503000 0.000000000000 \
0.000000504000 0.000000000000 \
0.000000504020 0.800000000000 \
0.000000505000 0.800000000000 \
0.000000506000 0.800000000000 \
0.000000507000 0.800000000000 \
0.000000508000 0.800000000000 \
0.000000509000 0.800000000000 \
0.000000509020 0.000000000000 \
0.000000510000 0.000000000000 \
0.000000511000 0.000000000000 \
0.000000511020 0.000000000000 \
0.000000512000 0.000000000000 \
0.000000513000 0.000000000000 \
0.000000514000 0.000000000000 \
0.000000515000 0.000000000000 \
0.000000516000 0.000000000000 \
0.000000516020 0.000000000000 \
0.000000517000 0.000000000000 \
0.000000518000 0.000000000000 \
0.000000518020 0.000000000000 \
0.000000519000 0.000000000000 \
0.000000520000 0.000000000000 \
0.000000521000 0.000000000000 \
0.000000522000 0.000000000000 \
0.000000523000 0.000000000000 \
0.000000523020 0.000000000000 \
0.000000524000 0.000000000000 \
0.000000525000 0.000000000000 \
0.000000525020 0.000000000000 \
0.000000526000 0.000000000000 \
0.000000527000 0.000000000000 \
0.000000528000 0.000000000000 \
0.000000529000 0.000000000000 \
0.000000530000 0.000000000000 \
0.000000530020 0.000000000000 \
0.000000531000 0.000000000000 \
0.000000532000 0.000000000000 \
0.000000532020 0.000000000000 \
0.000000533000 0.000000000000 \
0.000000534000 0.000000000000 \
0.000000535000 0.000000000000 \
0.000000536000 0.000000000000 \
0.000000537000 0.000000000000 \
0.000000537020 0.000000000000 \
0.000000538000 0.000000000000 \
0.000000539000 0.000000000000 \
0.000000539020 0.000000000000 \
0.000000540000 0.000000000000 \
0.000000541000 0.000000000000 \
0.000000542000 0.000000000000 \
0.000000543000 0.000000000000 \
0.000000544000 0.000000000000 \
0.000000544020 0.000000000000 \
0.000000545000 0.000000000000 \
0.000000546000 0.000000000000 \
0.000000546020 0.000000000000 \
0.000000547000 0.000000000000 \
0.000000548000 0.000000000000 \
0.000000549000 0.000000000000 \
0.000000550000 0.000000000000 \
0.000000551000 0.000000000000 \
0.000000551020 0.000000000000 \
0.000000552000 0.000000000000 \
0.000000553000 0.000000000000 \
0.000000553020 0.000000000000 \
0.000000554000 0.000000000000 \
0.000000555000 0.000000000000 \
0.000000556000 0.000000000000 \
0.000000557000 0.000000000000 \
0.000000558000 0.000000000000 \
0.000000558020 0.000000000000 \
0.000000559000 0.000000000000 \
0.000000560000 0.000000000000 \
0.000000560020 0.000000000000 \
0.000000561000 0.000000000000 \
0.000000562000 0.000000000000 \
0.000000563000 0.000000000000 \
0.000000564000 0.000000000000 \
0.000000565000 0.000000000000 \
0.000000565020 0.000000000000 \
0.000000566000 0.000000000000 \
0.000000567000 0.000000000000 \
0.000000567020 0.000000000000 \
0.000000568000 0.000000000000 \
0.000000569000 0.000000000000 \
0.000000570000 0.000000000000 \
0.000000571000 0.000000000000 \
0.000000572000 0.000000000000 \
0.000000572020 0.000000000000 \
0.000000573000 0.000000000000 \
0.000000574000 0.000000000000 \
0.000000574020 0.800000000000 \
0.000000575000 0.800000000000 \
0.000000576000 0.800000000000 \
0.000000577000 0.800000000000 \
0.000000578000 0.800000000000 \
0.000000579000 0.800000000000 \
0.000000579020 0.000000000000 \
0.000000580000 0.000000000000 \
0.000000581000 0.000000000000 \
0.000000581020 0.800000000000 \
0.000000582000 0.800000000000 \
0.000000583000 0.800000000000 \
0.000000584000 0.800000000000 \
0.000000585000 0.800000000000 \
0.000000586000 0.800000000000 \
0.000000586020 0.000000000000 \
0.000000587000 0.000000000000 \
0.000000588000 0.000000000000 \
0.000000588020 0.000000000000 \
0.000000589000 0.000000000000 \
0.000000590000 0.000000000000 \
0.000000591000 0.000000000000 \
0.000000592000 0.000000000000 \
0.000000593000 0.000000000000 \
0.000000593020 0.000000000000 \
0.000000594000 0.000000000000 \
0.000000595000 0.000000000000 \
0.000000595020 0.000000000000 \
0.000000596000 0.000000000000 \
0.000000597000 0.000000000000 \
0.000000598000 0.000000000000 \
0.000000599000 0.000000000000 \
0.000000600000 0.000000000000 \
0.000000600020 0.000000000000 \
0.000000601000 0.000000000000 \
0.000000602000 0.000000000000 \
0.000000602020 0.000000000000 \
0.000000603000 0.000000000000 \
0.000000604000 0.000000000000 \
0.000000605000 0.000000000000 \
0.000000606000 0.000000000000 \
0.000000607000 0.000000000000 \
0.000000607020 0.000000000000 \
0.000000608000 0.000000000000 \
0.000000609000 0.000000000000 \
0.000000609020 0.800000000000 \
0.000000610000 0.800000000000 \
0.000000611000 0.800000000000 \
0.000000612000 0.800000000000 \
0.000000613000 0.800000000000 \
0.000000614000 0.800000000000 \
0.000000614020 0.000000000000 \
0.000000615000 0.000000000000 \
0.000000616000 0.000000000000 \
0.000000616020 0.800000000000 \
0.000000617000 0.800000000000 \
0.000000618000 0.800000000000 \
0.000000619000 0.800000000000 \
0.000000620000 0.800000000000 \
0.000000621000 0.800000000000 \
0.000000621020 0.000000000000 \
0.000000622000 0.000000000000 \
0.000000623000 0.000000000000 \
0.000000623020 0.000000000000 \
0.000000624000 0.000000000000 \
0.000000625000 0.000000000000 \
0.000000626000 0.000000000000 \
0.000000627000 0.000000000000 \
0.000000628000 0.000000000000 \
0.000000628020 0.000000000000 \
0.000000629000 0.000000000000 \
0.000000630000 0.000000000000 \
0.000000630020 0.000000000000 \
0.000000631000 0.000000000000 \
0.000000632000 0.000000000000 \
0.000000633000 0.000000000000 \
0.000000634000 0.000000000000 \
0.000000635000 0.000000000000 \
0.000000635020 0.000000000000 \
0.000000636000 0.000000000000 \
0.000000637000 0.000000000000 \
0.000000637020 0.000000000000 \
0.000000638000 0.000000000000 \
0.000000639000 0.000000000000 \
0.000000640000 0.000000000000 \
0.000000641000 0.000000000000 \
0.000000642000 0.000000000000 \
0.000000642020 0.000000000000 \
0.000000643000 0.000000000000 \
0.000000644000 0.000000000000 \
0.000000644020 0.000000000000 \
0.000000645000 0.000000000000 \
0.000000646000 0.000000000000 \
0.000000647000 0.000000000000 \
0.000000648000 0.000000000000 \
0.000000649000 0.000000000000 \
0.000000649020 0.000000000000 \
0.000000650000 0.000000000000 \
0.000000651000 0.000000000000 \
0.000000651020 0.000000000000 \
0.000000652000 0.000000000000 \
0.000000653000 0.000000000000 \
0.000000654000 0.000000000000 \
0.000000655000 0.000000000000 \
0.000000656000 0.000000000000 \
0.000000656020 0.000000000000 \
0.000000657000 0.000000000000 \
0.000000658000 0.000000000000 \
0.000000658020 0.000000000000 \
0.000000659000 0.000000000000 \
0.000000660000 0.000000000000 \
0.000000661000 0.000000000000 \
0.000000662000 0.000000000000 \
0.000000663000 0.000000000000 \
0.000000663020 0.000000000000 \
0.000000664000 0.000000000000 \
0.000000665000 0.000000000000 \
0.000000665020 0.000000000000 \
0.000000666000 0.000000000000 \
0.000000667000 0.000000000000 \
0.000000668000 0.000000000000 \
0.000000669000 0.000000000000 \
0.000000670000 0.000000000000 \
0.000000670020 0.000000000000 \
0.000000671000 0.000000000000 \
0.000000672000 0.000000000000 \
0.000000672020 0.000000000000 \
0.000000673000 0.000000000000 \
0.000000674000 0.000000000000 \
0.000000675000 0.000000000000 \
0.000000676000 0.000000000000 \
0.000000677000 0.000000000000 \
0.000000677020 0.000000000000 \
0.000000678000 0.000000000000 \
0.000000679000 0.000000000000 \
0.000000679020 0.000000000000 \
0.000000680000 0.000000000000 \
0.000000681000 0.000000000000 \
0.000000682000 0.000000000000 \
0.000000683000 0.000000000000 \
0.000000684000 0.000000000000 \
0.000000684020 0.000000000000 \
0.000000685000 0.000000000000 \
0.000000686000 0.000000000000 \
0.000000686020 0.800000000000 \
0.000000687000 0.800000000000 \
0.000000688000 0.800000000000 \
0.000000689000 0.800000000000 \
0.000000690000 0.800000000000 \
0.000000691000 0.800000000000 \
0.000000691020 0.000000000000 \
0.000000692000 0.000000000000 \
0.000000693000 0.000000000000 \
0.000000693020 0.800000000000 \
0.000000694000 0.800000000000 \
0.000000695000 0.800000000000 \
0.000000696000 0.800000000000 \
0.000000697000 0.800000000000 \
0.000000698000 0.800000000000 \
0.000000698020 0.000000000000 \
0.000000699000 0.000000000000 \
0.000000700000 0.000000000000 \
0.000000700020 0.000000000000 \
0.000000701000 0.000000000000 \
0.000000702000 0.000000000000 \
0.000000703000 0.000000000000 \
0.000000704000 0.000000000000 \
0.000000705000 0.000000000000 \
0.000000705020 0.000000000000 \
0.000000706000 0.000000000000 \
0.000000707000 0.000000000000 \
0.000000707020 0.000000000000 \
0.000000708000 0.000000000000 \
0.000000709000 0.000000000000 \
0.000000710000 0.000000000000 \
0.000000711000 0.000000000000 \
0.000000712000 0.000000000000 \
0.000000712020 0.000000000000 \
0.000000713000 0.000000000000 \
0.000000714000 0.000000000000 \
0.000000714020 0.000000000000 \
0.000000715000 0.000000000000 \
0.000000716000 0.000000000000 \
0.000000717000 0.000000000000 \
0.000000718000 0.000000000000 \
0.000000719000 0.000000000000 \
0.000000719020 0.000000000000 \
0.000000720000 0.000000000000 \
0.000000721000 0.000000000000 \
0.000000721020 0.800000000000 \
0.000000722000 0.800000000000 \
0.000000723000 0.800000000000 \
0.000000724000 0.800000000000 \
0.000000725000 0.800000000000 \
0.000000726000 0.800000000000 \
0.000000726020 0.000000000000 \
0.000000727000 0.000000000000 \