simulator lang=spectre
va3 (a\<3\> VSS) vsource dc=0 
va2 (a\<2\> VSS) vsource dc=0 
va1 (a\<1\> VSS) vsource dc=0 
va0 (a\<0\> VSS) vsource dc=0.8 
vsram_0 (INIT\<0\> VSS) vsource dc=0.8 
vsram_1 (INIT\<1\> VSS) vsource dc=0 
vsram_2 (INIT\<2\> VSS) vsource dc=0.8 
vsram_3 (INIT\<3\> VSS) vsource dc=0.8 

vwwl_0 (WWL\<0\> VSS) vsource type=pwl wave=[  \
0.000000000000 0.800000000000 \
0.000000001000 0.800000000000 \
0.000000002000 0.800000000000 \
0.000000003000 0.800000000000 \
0.000000004000 0.800000000000 \
0.000000004020 0.000000000000] 

vwwl_1 (WWL\<1\> VSS) vsource type=pwl wave=[  \
0.000000000000 0.000000000000 \
0.000000001000 0.000000000000 \
0.000000002000 0.000000000000 \
0.000000003000 0.000000000000 \
0.000000004000 0.000000000000 \
0.000000005000 0.000000000000 \
0.000000006000 0.000000000000 \
0.000000006020 0.800000000000 \
0.000000007000 0.800000000000 \
0.000000008000 0.800000000000 \
0.000000009000 0.800000000000 \
0.000000010000 0.800000000000 \
0.000000011000 0.800000000000 \
0.000000011020 0.000000000000] 

vwwl_2 (WWL\<2\> VSS) vsource type=pwl wave=[  \
0.000000000000 0.000000000000 \
0.000000001000 0.000000000000 \
0.000000002000 0.000000000000 \
0.000000003000 0.000000000000 \
0.000000004000 0.000000000000 \
0.000000005000 0.000000000000 \
0.000000006000 0.000000000000 \
0.000000007000 0.000000000000 \
0.000000008000 0.000000000000 \
0.000000009000 0.000000000000 \
0.000000010000 0.000000000000 \
0.000000011000 0.000000000000 \
0.000000012000 0.000000000000 \
0.000000013000 0.000000000000 \
0.000000013020 0.800000000000 \
0.000000014000 0.800000000000 \
0.000000015000 0.800000000000 \
0.000000016000 0.800000000000 \
0.000000017000 0.800000000000 \
0.000000018000 0.800000000000 \
0.000000018020 0.000000000000 \
0.000000019000 0.000000000000] 

vwwl_3 (WWL\<3\> VSS) vsource type=pwl wave=[  \
0.000000000000 0.000000000000 \
0.000000001000 0.000000000000 \
0.000000002000 0.000000000000 \
0.000000003000 0.000000000000 \
0.000000004000 0.000000000000 \
0.000000005000 0.000000000000 \
0.000000006000 0.000000000000 \
0.000000007000 0.000000000000 \
0.000000008000 0.000000000000 \
0.000000009000 0.000000000000 \
0.000000010000 0.000000000000 \
0.000000011000 0.000000000000 \
0.000000012000 0.000000000000 \
0.000000013000 0.000000000000 \
0.000000014000 0.000000000000 \
0.000000015000 0.000000000000 \
0.000000016000 0.000000000000 \
0.000000017000 0.000000000000 \
0.000000018000 0.000000000000 \
0.000000019000 0.000000000000 \
0.000000020000 0.000000000000 \
0.000000020020 0.800000000000 \
0.000000021000 0.800000000000 \
0.000000022000 0.800000000000 \
0.000000023000 0.800000000000 \
0.000000024000 0.800000000000 \
0.000000025000 0.800000000000 \
0.000000025020 0.000000000000 \
0.000000026000 0.000000000000] 
