simulator lang=spectre
vsram_0 (INIT\<0\> VSS) vsource dc=0 
vsram_1 (INIT\<1\> VSS) vsource dc=0 
vsram_2 (INIT\<2\> VSS) vsource dc=0 
vsram_3 (INIT\<3\> VSS) vsource dc=0 
vsram_4 (INIT\<4\> VSS) vsource dc=0 
vsram_5 (INIT\<5\> VSS) vsource dc=0 
vsram_6 (INIT\<6\> VSS) vsource dc=0 
vsram_7 (INIT\<7\> VSS) vsource dc=0 
vsram_8 (INIT\<8\> VSS) vsource dc=0 
vsram_9 (INIT\<9\> VSS) vsource dc=0 
vsram_10 (INIT\<10\> VSS) vsource dc=0 
vsram_11 (INIT\<11\> VSS) vsource dc=0 
vsram_12 (INIT\<12\> VSS) vsource dc=0 
vsram_13 (INIT\<13\> VSS) vsource dc=0 
vsram_14 (INIT\<14\> VSS) vsource dc=0 
vsram_15 (INIT\<15\> VSS) vsource dc=0 
vsram_16 (INIT\<16\> VSS) vsource dc=0 
vsram_17 (INIT\<17\> VSS) vsource dc=0 
vsram_18 (INIT\<18\> VSS) vsource dc=0 
vsram_19 (INIT\<19\> VSS) vsource dc=0 
vsram_20 (INIT\<20\> VSS) vsource dc=0 
vsram_21 (INIT\<21\> VSS) vsource dc=0 
vsram_22 (INIT\<22\> VSS) vsource dc=0 
vsram_23 (INIT\<23\> VSS) vsource dc=0 
vsram_24 (INIT\<24\> VSS) vsource dc=0 
vsram_25 (INIT\<25\> VSS) vsource dc=0 
vsram_26 (INIT\<26\> VSS) vsource dc=0 
vsram_27 (INIT\<27\> VSS) vsource dc=0 
vsram_28 (INIT\<28\> VSS) vsource dc=0 
vsram_29 (INIT\<29\> VSS) vsource dc=0 
vsram_30 (INIT\<30\> VSS) vsource dc=0 
vsram_31 (INIT\<31\> VSS) vsource dc=0 
vsram_32 (INIT\<32\> VSS) vsource dc=0 
vsram_33 (INIT\<33\> VSS) vsource dc=0 
vsram_34 (INIT\<34\> VSS) vsource dc=0 
vsram_35 (INIT\<35\> VSS) vsource dc=0 
vsram_36 (INIT\<36\> VSS) vsource dc=0 
vsram_37 (INIT\<37\> VSS) vsource dc=0 
vsram_38 (INIT\<38\> VSS) vsource dc=0 
vsram_39 (INIT\<39\> VSS) vsource dc=0 
vsram_40 (INIT\<40\> VSS) vsource dc=0 
vsram_41 (INIT\<41\> VSS) vsource dc=0 
vsram_42 (INIT\<42\> VSS) vsource dc=0 
vsram_43 (INIT\<43\> VSS) vsource dc=0 
vsram_44 (INIT\<44\> VSS) vsource dc=0 
vsram_45 (INIT\<45\> VSS) vsource dc=0 
vsram_46 (INIT\<46\> VSS) vsource dc=0 
vsram_47 (INIT\<47\> VSS) vsource dc=0 
vsram_48 (INIT\<48\> VSS) vsource dc=0 
vsram_49 (INIT\<49\> VSS) vsource dc=0 
vsram_50 (INIT\<50\> VSS) vsource dc=0 
vsram_51 (INIT\<51\> VSS) vsource dc=0 
vsram_52 (INIT\<52\> VSS) vsource dc=0 
vsram_53 (INIT\<53\> VSS) vsource dc=0 
vsram_54 (INIT\<54\> VSS) vsource dc=0 
vsram_55 (INIT\<55\> VSS) vsource dc=0 
vsram_56 (INIT\<56\> VSS) vsource dc=0 
vsram_57 (INIT\<57\> VSS) vsource dc=0 
vsram_58 (INIT\<58\> VSS) vsource dc=0 
vsram_59 (INIT\<59\> VSS) vsource dc=0 
vsram_60 (INIT\<60\> VSS) vsource dc=0 
vsram_61 (INIT\<61\> VSS) vsource dc=0 
vsram_62 (INIT\<62\> VSS) vsource dc=0 
vsram_63 (INIT\<63\> VSS) vsource dc=0 
vsram_64 (INIT\<64\> VSS) vsource dc=0 
vsram_65 (INIT\<65\> VSS) vsource dc=0 
vsram_66 (INIT\<66\> VSS) vsource dc=0 
vsram_67 (INIT\<67\> VSS) vsource dc=0 
vsram_68 (INIT\<68\> VSS) vsource dc=0 
vsram_69 (INIT\<69\> VSS) vsource dc=0 
vsram_70 (INIT\<70\> VSS) vsource dc=0 
vsram_71 (INIT\<71\> VSS) vsource dc=0 
vsram_72 (INIT\<72\> VSS) vsource dc=0 
vsram_73 (INIT\<73\> VSS) vsource dc=0 
vsram_74 (INIT\<74\> VSS) vsource dc=0 
vsram_75 (INIT\<75\> VSS) vsource dc=0 
vsram_76 (INIT\<76\> VSS) vsource dc=0 
vsram_77 (INIT\<77\> VSS) vsource dc=0 
vsram_78 (INIT\<78\> VSS) vsource dc=0 
vsram_79 (INIT\<79\> VSS) vsource dc=0 
vsram_80 (INIT\<80\> VSS) vsource dc=0 
vsram_81 (INIT\<81\> VSS) vsource dc=0 
vsram_82 (INIT\<82\> VSS) vsource dc=0 
vsram_83 (INIT\<83\> VSS) vsource dc=0 
vsram_84 (INIT\<84\> VSS) vsource dc=0 
vsram_85 (INIT\<85\> VSS) vsource dc=0 
vsram_86 (INIT\<86\> VSS) vsource dc=0 
vsram_87 (INIT\<87\> VSS) vsource dc=0 
vsram_88 (INIT\<88\> VSS) vsource dc=0 
vsram_89 (INIT\<89\> VSS) vsource dc=0 
vsram_90 (INIT\<90\> VSS) vsource dc=0 
vsram_91 (INIT\<91\> VSS) vsource dc=0 
vsram_92 (INIT\<92\> VSS) vsource dc=0 
vsram_93 (INIT\<93\> VSS) vsource dc=0 
vsram_94 (INIT\<94\> VSS) vsource dc=0 
vsram_95 (INIT\<95\> VSS) vsource dc=0 
vsram_96 (INIT\<96\> VSS) vsource dc=0 
vsram_97 (INIT\<97\> VSS) vsource dc=0 
vsram_98 (INIT\<98\> VSS) vsource dc=0 
vsram_99 (INIT\<99\> VSS) vsource dc=0 
vsram_100 (INIT\<100\> VSS) vsource dc=0 
vsram_101 (INIT\<101\> VSS) vsource dc=0 
vsram_102 (INIT\<102\> VSS) vsource dc=0 
vsram_103 (INIT\<103\> VSS) vsource dc=0 
vsram_104 (INIT\<104\> VSS) vsource dc=0 
vsram_105 (INIT\<105\> VSS) vsource dc=0 
vsram_106 (INIT\<106\> VSS) vsource dc=0 
vsram_107 (INIT\<107\> VSS) vsource dc=0 
vsram_108 (INIT\<108\> VSS) vsource dc=0 
vsram_109 (INIT\<109\> VSS) vsource dc=0 
vsram_110 (INIT\<110\> VSS) vsource dc=0 
vsram_111 (INIT\<111\> VSS) vsource dc=0 
vsram_112 (INIT\<112\> VSS) vsource dc=0 
vsram_113 (INIT\<113\> VSS) vsource dc=0 
vsram_114 (INIT\<114\> VSS) vsource dc=0 
vsram_115 (INIT\<115\> VSS) vsource dc=0 
vsram_116 (INIT\<116\> VSS) vsource dc=0 
vsram_117 (INIT\<117\> VSS) vsource dc=0 
vsram_118 (INIT\<118\> VSS) vsource dc=0 
vsram_119 (INIT\<119\> VSS) vsource dc=0 
vsram_120 (INIT\<120\> VSS) vsource dc=0 
vsram_121 (INIT\<121\> VSS) vsource dc=0 
vsram_122 (INIT\<122\> VSS) vsource dc=0 
vsram_123 (INIT\<123\> VSS) vsource dc=0 
vsram_124 (INIT\<124\> VSS) vsource dc=0 
vsram_125 (INIT\<125\> VSS) vsource dc=0 
vsram_126 (INIT\<126\> VSS) vsource dc=0 
vsram_127 (INIT\<127\> VSS) vsource dc=0 
vsram_128 (INIT\<128\> VSS) vsource dc=0 
vsram_129 (INIT\<129\> VSS) vsource dc=0 
vsram_130 (INIT\<130\> VSS) vsource dc=0 
vsram_131 (INIT\<131\> VSS) vsource dc=0 
vsram_132 (INIT\<132\> VSS) vsource dc=0 
vsram_133 (INIT\<133\> VSS) vsource dc=0 
vsram_134 (INIT\<134\> VSS) vsource dc=0 
vsram_135 (INIT\<135\> VSS) vsource dc=0 
vsram_136 (INIT\<136\> VSS) vsource dc=0 
vsram_137 (INIT\<137\> VSS) vsource dc=0 
vsram_138 (INIT\<138\> VSS) vsource dc=0 
vsram_139 (INIT\<139\> VSS) vsource dc=0 
vsram_140 (INIT\<140\> VSS) vsource dc=0 
vsram_141 (INIT\<141\> VSS) vsource dc=0 
vsram_142 (INIT\<142\> VSS) vsource dc=0 
vsram_143 (INIT\<143\> VSS) vsource dc=0 
vsram_144 (INIT\<144\> VSS) vsource dc=0 
vsram_145 (INIT\<145\> VSS) vsource dc=0 
vsram_146 (INIT\<146\> VSS) vsource dc=0 
vsram_147 (INIT\<147\> VSS) vsource dc=0 
vsram_148 (INIT\<148\> VSS) vsource dc=0 
vsram_149 (INIT\<149\> VSS) vsource dc=0 
vsram_150 (INIT\<150\> VSS) vsource dc=0 
vsram_151 (INIT\<151\> VSS) vsource dc=0 
vsram_152 (INIT\<152\> VSS) vsource dc=0 
vsram_153 (INIT\<153\> VSS) vsource dc=0 
vsram_154 (INIT\<154\> VSS) vsource dc=0 
vsram_155 (INIT\<155\> VSS) vsource dc=0 
vsram_156 (INIT\<156\> VSS) vsource dc=0 
vsram_157 (INIT\<157\> VSS) vsource dc=0 
vsram_158 (INIT\<158\> VSS) vsource dc=0 
vsram_159 (INIT\<159\> VSS) vsource dc=0 
vsram_160 (INIT\<160\> VSS) vsource dc=0 
vsram_161 (INIT\<161\> VSS) vsource dc=0 
vsram_162 (INIT\<162\> VSS) vsource dc=0 
vsram_163 (INIT\<163\> VSS) vsource dc=0 
vsram_164 (INIT\<164\> VSS) vsource dc=0 
vsram_165 (INIT\<165\> VSS) vsource dc=0 
vsram_166 (INIT\<166\> VSS) vsource dc=0 
vsram_167 (INIT\<167\> VSS) vsource dc=0 
vsram_168 (INIT\<168\> VSS) vsource dc=0 
vsram_169 (INIT\<169\> VSS) vsource dc=0 
vsram_170 (INIT\<170\> VSS) vsource dc=0 
vsram_171 (INIT\<171\> VSS) vsource dc=0 
vsram_172 (INIT\<172\> VSS) vsource dc=0 
vsram_173 (INIT\<173\> VSS) vsource dc=0 
vsram_174 (INIT\<174\> VSS) vsource dc=0 
vsram_175 (INIT\<175\> VSS) vsource dc=0 
vsram_176 (INIT\<176\> VSS) vsource dc=0 
vsram_177 (INIT\<177\> VSS) vsource dc=0 
vsram_178 (INIT\<178\> VSS) vsource dc=0 
vsram_179 (INIT\<179\> VSS) vsource dc=0 
vsram_180 (INIT\<180\> VSS) vsource dc=0 
vsram_181 (INIT\<181\> VSS) vsource dc=0 
vsram_182 (INIT\<182\> VSS) vsource dc=0 
vsram_183 (INIT\<183\> VSS) vsource dc=0 
vsram_184 (INIT\<184\> VSS) vsource dc=0 
vsram_185 (INIT\<185\> VSS) vsource dc=0 
vsram_186 (INIT\<186\> VSS) vsource dc=0 
vsram_187 (INIT\<187\> VSS) vsource dc=0 
vsram_188 (INIT\<188\> VSS) vsource dc=0 
vsram_189 (INIT\<189\> VSS) vsource dc=0 
vsram_190 (INIT\<190\> VSS) vsource dc=0 
vsram_191 (INIT\<191\> VSS) vsource dc=0 
vsram_192 (INIT\<192\> VSS) vsource dc=0 
vsram_193 (INIT\<193\> VSS) vsource dc=0 
vsram_194 (INIT\<194\> VSS) vsource dc=0 
vsram_195 (INIT\<195\> VSS) vsource dc=0 
vsram_196 (INIT\<196\> VSS) vsource dc=0 
vsram_197 (INIT\<197\> VSS) vsource dc=0 
vsram_198 (INIT\<198\> VSS) vsource dc=0 
vsram_199 (INIT\<199\> VSS) vsource dc=0 
vsram_200 (INIT\<200\> VSS) vsource dc=0 
vsram_201 (INIT\<201\> VSS) vsource dc=0 
vsram_202 (INIT\<202\> VSS) vsource dc=0 
vsram_203 (INIT\<203\> VSS) vsource dc=0 
vsram_204 (INIT\<204\> VSS) vsource dc=0 
vsram_205 (INIT\<205\> VSS) vsource dc=0 
vsram_206 (INIT\<206\> VSS) vsource dc=0 
vsram_207 (INIT\<207\> VSS) vsource dc=0 
vsram_208 (INIT\<208\> VSS) vsource dc=0 
vsram_209 (INIT\<209\> VSS) vsource dc=0 
vsram_210 (INIT\<210\> VSS) vsource dc=0 
vsram_211 (INIT\<211\> VSS) vsource dc=0 
vsram_212 (INIT\<212\> VSS) vsource dc=0 
vsram_213 (INIT\<213\> VSS) vsource dc=0 
vsram_214 (INIT\<214\> VSS) vsource dc=0 
vsram_215 (INIT\<215\> VSS) vsource dc=0 
vsram_216 (INIT\<216\> VSS) vsource dc=0 
vsram_217 (INIT\<217\> VSS) vsource dc=0 
vsram_218 (INIT\<218\> VSS) vsource dc=0 
vsram_219 (INIT\<219\> VSS) vsource dc=0 
vsram_220 (INIT\<220\> VSS) vsource dc=0 
vsram_221 (INIT\<221\> VSS) vsource dc=0 
vsram_222 (INIT\<222\> VSS) vsource dc=0 
vsram_223 (INIT\<223\> VSS) vsource dc=0 
vsram_224 (INIT\<224\> VSS) vsource dc=0 
vsram_225 (INIT\<225\> VSS) vsource dc=0 
vsram_226 (INIT\<226\> VSS) vsource dc=0 
vsram_227 (INIT\<227\> VSS) vsource dc=0 
vsram_228 (INIT\<228\> VSS) vsource dc=0 
vsram_229 (INIT\<229\> VSS) vsource dc=0 
vsram_230 (INIT\<230\> VSS) vsource dc=0 
vsram_231 (INIT\<231\> VSS) vsource dc=0 
vsram_232 (INIT\<232\> VSS) vsource dc=0 
vsram_233 (INIT\<233\> VSS) vsource dc=0 
vsram_234 (INIT\<234\> VSS) vsource dc=0 
vsram_235 (INIT\<235\> VSS) vsource dc=0 
vsram_236 (INIT\<236\> VSS) vsource dc=0 
vsram_237 (INIT\<237\> VSS) vsource dc=0 
vsram_238 (INIT\<238\> VSS) vsource dc=0 
vsram_239 (INIT\<239\> VSS) vsource dc=0 
vsram_240 (INIT\<240\> VSS) vsource dc=0 
vsram_241 (INIT\<241\> VSS) vsource dc=0 
vsram_242 (INIT\<242\> VSS) vsource dc=0 
vsram_243 (INIT\<243\> VSS) vsource dc=0 
vsram_244 (INIT\<244\> VSS) vsource dc=0 
vsram_245 (INIT\<245\> VSS) vsource dc=0 
vsram_246 (INIT\<246\> VSS) vsource dc=0 
vsram_247 (INIT\<247\> VSS) vsource dc=0 
vsram_248 (INIT\<248\> VSS) vsource dc=0 
vsram_249 (INIT\<249\> VSS) vsource dc=0 
vsram_250 (INIT\<250\> VSS) vsource dc=0 
vsram_251 (INIT\<251\> VSS) vsource dc=0 
vsram_252 (INIT\<252\> VSS) vsource dc=0 
vsram_253 (INIT\<253\> VSS) vsource dc=0 
vsram_254 (INIT\<254\> VSS) vsource dc=0 
vsram_255 (INIT\<255\> VSS) vsource dc=0 
