simulator lang=spectre
vwbl_0 (WBLL VSS) vsource type=pwl wave=[  \
0.000000000020 0.000000000000 \
0.000000001000 0.000000000000 \
0.000000002000 0.000000000000 \
0.000000003000 0.000000000000 \
0.000000004000 0.000000000000 \
0.000000005000 0.000000000000 \
0.000000005020 0.000000000000 \
0.000000006000 0.000000000000 \
0.000000007000 0.000000000000 \
0.000000007020 0.000000000000 \
0.000000008000 0.000000000000 \
0.000000009000 0.000000000000 \
0.000000010000 0.000000000000 \
0.000000011000 0.000000000000 \
0.000000012000 0.000000000000 \
0.000000012020 0.000000000000 \
0.000000013000 0.000000000000 \
0.000000014000 0.000000000000 \
0.000000014020 0.800000000000 \
0.000000015000 0.800000000000 \
0.000000016000 0.800000000000 \
0.000000017000 0.800000000000 \
0.000000018000 0.800000000000 \
0.000000019000 0.800000000000 \
0.000000019002 0.000000000000 \
0.000000020000 0.000000000000 \
0.000000021000 0.000000000000 \
0.000000021020 0.000000000000 \
0.000000022000 0.000000000000 \
0.000000023000 0.000000000000 \
0.000000024000 0.000000000000 \
0.000000025000 0.000000000000 \
0.000000026000 0.000000000000 \
0.000000026002 0.000000000000 \
0.000000027000 0.000000000000 \
0.000000028000 0.000000000000 \
0.000000029000 0.000000000000] 
